CHEMBL15177
     RDKit          2D

 34 36  0  0  0  0  0  0  0  0999 V2000
   14.2500   -9.0933    0.0000 C   0  0  0  0  0  0  0  0  0  0  0  0
   12.7500   -9.0933    0.0000 N   0  0  0  0  0  0  0  0  0  0  0  0
   12.0000  -10.3923    0.0000 C   0  0  0  0  0  0  0  0  0  0  0  0
   12.0000   -7.7942    0.0000 C   0  0  0  0  0  0  0  0  0  0  0  0
   12.7500   -6.4952    0.0000 O   0  0  0  0  0  0  0  0  0  0  0  0
   10.5000   -7.7942    0.0000 C   0  0  0  0  0  0  0  0  0  0  0  0
    9.7500   -6.4952    0.0000 C   0  0  0  0  0  0  0  0  0  0  0  0
    8.2500   -6.4952    0.0000 S   0  0  0  0  0  0  0  0  0  0  0  0
    7.5000   -5.1962    0.0000 C   0  0  0  0  0  0  0  0  0  0  0  0
    8.2500   -3.8971    0.0000 S   0  0  0  0  0  0  0  0  0  0  0  0
    9.7500   -3.8971    0.0000 C   0  0  0  0  0  0  0  0  0  0  0  0
   10.5000   -2.5981    0.0000 C   0  0  0  0  0  0  0  0  0  0  0  0
   12.0000   -2.5981    0.0000 C   0  0  0  0  0  0  0  0  0  0  0  0
   12.7500   -3.8971    0.0000 O   0  0  0  0  0  0  0  0  0  0  0  0
   12.7500   -1.2990    0.0000 O   0  0  0  0  0  0  0  0  0  0  0  0
    6.0000   -5.1962    0.0000 C   0  0  0  0  0  0  0  0  0  0  0  0
    5.2500   -6.4952    0.0000 C   0  0  0  0  0  0  0  0  0  0  0  0
    3.7500   -6.4952    0.0000 C   0  0  0  0  0  0  0  0  0  0  0  0
    3.0000   -5.1962    0.0000 C   0  0  0  0  0  0  0  0  0  0  0  0
    3.7500   -3.8971    0.0000 C   0  0  0  0  0  0  0  0  0  0  0  0
    3.0000   -2.5981    0.0000 C   0  0  0  0  0  0  0  0  0  0  0  0
    1.5000   -2.5981    0.0000 C   0  0  0  0  0  0  0  0  0  0  0  0
    0.7500   -1.2990    0.0000 C   0  0  0  0  0  0  0  0  0  0  0  0
    1.5000    0.0000    0.0000 C   0  0  0  0  0  0  0  0  0  0  0  0
    0.7500    1.2990    0.0000 C   0  0  0  0  0  0  0  0  0  0  0  0
   -0.7500    1.2990    0.0000 C   0  0  0  0  0  0  0  0  0  0  0  0
   -1.5000    2.5981    0.0000 C   0  0  0  0  0  0  0  0  0  0  0  0
   -3.0000    2.5981    0.0000 C   0  0  0  0  0  0  0  0  0  0  0  0
   -3.7500    1.2990    0.0000 C   0  0  0  0  0  0  0  0  0  0  0  0
   -5.2500    1.2990    0.0000 Cl  0  0  0  0  0  0  0  0  0  0  0  0
   -3.0000    0.0000    0.0000 C   0  0  0  0  0  0  0  0  0  0  0  0
   -1.5000    0.0000    0.0000 C   0  0  0  0  0  0  0  0  0  0  0  0
   -0.7500   -1.2990    0.0000 N   0  0  0  0  0  0  0  0  0  0  0  0
    5.2500   -3.8971    0.0000 C   0  0  0  0  0  0  0  0  0  0  0  0
  1  2  1  0
  2  3  1  0
  2  4  1  0
  4  5  2  0
  4  6  1  0
  6  7  1  0
  7  8  1  0
  8  9  1  0
  9 10  1  0
 10 11  1  0
 11 12  1  0
 12 13  1  0
 13 14  2  0
 13 15  1  0
  9 16  1  0
 16 17  2  0
 17 18  1  0
 18 19  2  0
 19 20  1  0
 20 21  1  0
 21 22  2  0
 22 23  1  0
 23 24  2  0
 24 25  1  0
 25 26  2  0
 26 27  1  0
 27 28  2  0
 28 29  1  0
 29 30  1  0
 29 31  2  0
 31 32  1  0
 32 33  2  0
 20 34  2  0
 34 16  1  0
 33 23  1  0
 32 26  1  0
M  END
>  <assay_description>  (1) 
Inhibition of human MRP2-mediated estradiol-17-beta-glucuronide transport in Sf9 cells inverted membrane vesicles

>  <molecule_pref_name>  (1) 
MK-571

>  <canonical_smiles>  (1) 
CN(C)C(=O)CCSC(SCCC(=O)O)c1cccc(/C=C/c2ccc3ccc(Cl)cc3n2)c1

>  <pchembl_value>  (1) 
5.00

>  <standard_type>  (1) 
IC50

>  <standard_relation>  (1) 
=

>  <standard_value>  (1) 
10000.0

>  <standard_units>  (1) 
nM

>  <target_pref_name>  (1) 
Canalicular multispecific organic anion transporter 1

>  <target_organism>  (1) 
Homo sapiens

$$$$
CHEMBL510556
     RDKit          2D

 24 27  0  0  0  0  0  0  0  0999 V2000
   -3.0134  -12.2195    0.0000 O   0  0  0  0  0  0  0  0  0  0  0  0
   -3.1702  -10.7277    0.0000 C   0  0  0  0  0  0  0  0  0  0  0  0
   -4.5405  -10.1176    0.0000 O   0  0  0  0  0  0  0  0  0  0  0  0
   -1.9567   -9.8460    0.0000 C   0  0  0  0  0  0  0  0  0  0  0  0
   -2.1135   -8.3542    0.0000 C   0  0  0  0  0  0  0  0  0  0  0  0
   -0.8999   -7.4725    0.0000 C   0  0  0  0  0  0  0  0  0  0  0  0
    0.4704   -8.0826    0.0000 C   0  0  0  0  0  0  0  0  0  0  0  0
    1.6839   -7.2010    0.0000 N   0  0  0  0  0  0  0  0  0  0  0  0
    1.5271   -5.7092    0.0000 C   0  0  0  0  0  0  0  0  0  0  0  0
    0.1568   -5.0991    0.0000 N   0  0  0  0  0  0  0  0  0  0  0  0
   -0.0000   -3.6073    0.0000 C   0  0  0  0  0  0  0  0  0  0  0  0
   -1.2135   -2.7256    0.0000 S   0  0  0  0  0  0  0  0  0  0  0  0
   -0.7500   -1.2990    0.0000 C   0  0  0  0  0  0  0  0  0  0  0  0
    0.7500   -1.2990    0.0000 C   0  0  0  0  0  0  0  0  0  0  0  0
    1.2135   -2.7256    0.0000 C   0  0  0  0  0  0  0  0  0  0  0  0
    2.5838   -3.3357    0.0000 C   0  0  0  0  0  0  0  0  0  0  0  0
    3.7974   -2.4540    0.0000 O   0  0  0  0  0  0  0  0  0  0  0  0
    2.7406   -4.8275    0.0000 S   0  0  0  0  0  0  0  0  0  0  0  0
    1.5000    0.0000    0.0000 C   0  0  0  0  0  0  0  0  0  0  0  0
    0.7500    1.2990    0.0000 C   0  0  0  0  0  0  0  0  0  0  0  0
   -0.7500    1.2990    0.0000 C   0  0  0  0  0  0  0  0  0  0  0  0
   -1.5000    0.0000    0.0000 C   0  0  0  0  0  0  0  0  0  0  0  0
    0.6272   -9.5744    0.0000 C   0  0  0  0  0  0  0  0  0  0  0  0
   -0.5864  -10.4561    0.0000 C   0  0  0  0  0  0  0  0  0  0  0  0
  1  2  2  0
  2  3  1  0
  2  4  1  0
  4  5  2  0
  5  6  1  0
  6  7  2  0
  7  8  1  0
  8  9  1  0
  9 10  2  0
 10 11  1  0
 11 12  1  0
 12 13  1  0
 13 14  2  0
 14 15  1  0
 15 16  1  0
 16 17  2  0
 16 18  1  0
 14 19  1  0
 19 20  1  0
 20 21  1  0
 21 22  1  0
  7 23  1  0
 23 24  2  0
 24  4  1  0
 18  9  1  0
 15 11  2  0
 22 13  1  0
M  END
>  <assay_description>  (2) 
Inhibition of human MRP2 expressed in dog MDCK2 cells

>  <molecule_pref_name>  (2) 
None

>  <canonical_smiles>  (2) 
O=C(O)c1ccc(Nc2nc3sc4c(c3c(=O)s2)CCCC4)cc1

>  <pchembl_value>  (2) 
4.67

>  <standard_type>  (2) 
IC50

>  <standard_relation>  (2) 
=

>  <standard_value>  (2) 
21500.0

>  <standard_units>  (2) 
nM

>  <target_pref_name>  (2) 
Canalicular multispecific organic anion transporter 1

>  <target_organism>  (2) 
Homo sapiens

$$$$
CHEMBL160
     RDKit          2D

 85 85  0  0  0  0  0  0  0  0999 V2000
   12.3901   -5.1962    0.0000 C   0  0  0  0  0  0  0  0  0  0  0  0
   11.6401   -3.8971    0.0000 C   0  0  0  0  0  0  0  0  0  0  0  0
   10.1401   -3.8971    0.0000 C   0  0  0  0  0  0  0  0  0  0  0  0
    9.3901   -2.5981    0.0000 C   0  0  0  0  0  0  0  0  0  0  0  0
   10.1401   -1.2990    0.0000 C   0  0  0  0  0  0  0  0  0  0  0  0
   11.6401   -1.2990    0.0000 C   0  0  0  0  0  0  0  0  0  0  0  0
    9.3901    0.0000    0.0000 C   0  0  0  0  0  0  0  0  0  0  0  0
   10.1401    1.2990    0.0000 O   0  0  0  0  0  0  0  0  0  0  0  0
    7.8901    0.0000    0.0000 C   0  0  0  0  0  0  0  0  0  0  0  0
    7.7475    1.4932    0.0000 C   0  0  0  0  0  0  0  0  0  0  0  0
    9.2204    1.7771    0.0000 O   0  0  0  0  0  0  0  0  0  0  0  0
    7.3249    2.9324    0.0000 N   0  0  0  0  0  0  0  0  0  0  0  0
    6.6376    4.2657    0.0000 C   0  0  0  0  0  0  0  0  0  0  0  0
    7.8994    5.0767    0.0000 C   0  0  0  0  0  0  0  0  0  0  0  0
    9.2327    4.3893    0.0000 C   0  0  0  0  0  0  0  0  0  0  0  0
    5.7103    5.4448    0.0000 C   0  0  0  0  0  0  0  0  0  0  0  0
    6.7959    6.4799    0.0000 O   0  0  0  0  0  0  0  0  0  0  0  0
    4.5767    6.4271    0.0000 N   0  0  0  0  0  0  0  0  0  0  0  0
    5.4468    7.6489    0.0000 C   0  0  0  0  0  0  0  0  0  0  0  0
    3.2777    7.1771    0.0000 C   0  0  0  0  0  0  0  0  0  0  0  0
    1.8602    7.6677    0.0000 C   0  0  0  0  0  0  0  0  0  0  0  0
    2.2138    9.1254    0.0000 O   0  0  0  0  0  0  0  0  0  0  0  0
    0.3754    7.8811    0.0000 N   0  0  0  0  0  0  0  0  0  0  0  0
    0.4468    9.3794    0.0000 C   0  0  0  0  0  0  0  0  0  0  0  0
   -1.1229    7.8098    0.0000 C   0  0  0  0  0  0  0  0  0  0  0  0
   -1.3363    9.2945    0.0000 C   0  0  0  0  0  0  0  0  0  0  0  0
   -0.1573   10.2217    0.0000 C   0  0  0  0  0  0  0  0  0  0  0  0
   -0.3707   11.7065    0.0000 C   0  0  0  0  0  0  0  0  0  0  0  0
    1.2353    9.6642    0.0000 C   0  0  0  0  0  0  0  0  0  0  0  0
   -2.5806    7.4561    0.0000 C   0  0  0  0  0  0  0  0  0  0  0  0
   -3.0712    8.8736    0.0000 O   0  0  0  0  0  0  0  0  0  0  0  0
   -3.9450    6.8330    0.0000 N   0  0  0  0  0  0  0  0  0  0  0  0
   -5.1669    5.9629    0.0000 C   0  0  0  0  0  0  0  0  0  0  0  0
   -6.1492    7.0966    0.0000 C   0  0  0  0  0  0  0  0  0  0  0  0
   -5.6586    8.5141    0.0000 C   0  0  0  0  0  0  0  0  0  0  0  0
   -7.6221    6.8127    0.0000 C   0  0  0  0  0  0  0  0  0  0  0  0
   -6.2020    4.8773    0.0000 C   0  0  0  0  0  0  0  0  0  0  0  0
   -7.3811    5.8046    0.0000 O   0  0  0  0  0  0  0  0  0  0  0  0
   -7.0130    3.6154    0.0000 N   0  0  0  0  0  0  0  0  0  0  0  0
   -8.3462    4.3028    0.0000 C   0  0  0  0  0  0  0  0  0  0  0  0
   -7.5705    2.2229    0.0000 C   0  0  0  0  0  0  0  0  0  0  0  0
   -9.0097    2.6455    0.0000 C   0  0  0  0  0  0  0  0  0  0  0  0
   -9.3634    4.1032    0.0000 C   0  0  0  0  0  0  0  0  0  0  0  0
  -10.8026    4.5258    0.0000 C   0  0  0  0  0  0  0  0  0  0  0  0
   -8.2778    5.1383    0.0000 C   0  0  0  0  0  0  0  0  0  0  0  0
   -7.8544    0.7500    0.0000 C   0  0  0  0  0  0  0  0  0  0  0  0
   -9.3476    0.8926    0.0000 O   0  0  0  0  0  0  0  0  0  0  0  0
   -7.8544   -0.7500    0.0000 N   0  0  0  0  0  0  0  0  0  0  0  0
   -7.5705   -2.2229    0.0000 C   0  0  0  0  0  0  0  0  0  0  0  0
   -9.0097   -2.6455    0.0000 C   0  0  0  0  0  0  0  0  0  0  0  0
   -7.0130   -3.6154    0.0000 C   0  0  0  0  0  0  0  0  0  0  0  0
   -8.3462   -4.3028    0.0000 O   0  0  0  0  0  0  0  0  0  0  0  0
   -6.2020   -4.8773    0.0000 N   0  0  0  0  0  0  0  0  0  0  0  0
   -5.1669   -5.9629    0.0000 C   0  0  0  0  0  0  0  0  0  0  0  0
   -6.1492   -7.0966    0.0000 C   0  0  0  0  0  0  0  0  0  0  0  0
   -3.9450   -6.8330    0.0000 C   0  0  0  0  0  0  0  0  0  0  0  0
   -4.6950   -8.1320    0.0000 O   0  0  0  0  0  0  0  0  0  0  0  0
   -2.5806   -7.4561    0.0000 N   0  0  0  0  0  0  0  0  0  0  0  0
   -3.0712   -8.8736    0.0000 C   0  0  0  0  0  0  0  0  0  0  0  0
   -1.1229   -7.8098    0.0000 C   0  0  0  0  0  0  0  0  0  0  0  0
   -1.3363   -9.2945    0.0000 C   0  0  0  0  0  0  0  0  0  0  0  0
   -2.7289   -9.8520    0.0000 C   0  0  0  0  0  0  0  0  0  0  0  0
   -2.9424  -11.3367    0.0000 C   0  0  0  0  0  0  0  0  0  0  0  0
   -3.9080   -8.9248    0.0000 C   0  0  0  0  0  0  0  0  0  0  0  0
    0.3754   -7.8811    0.0000 C   0  0  0  0  0  0  0  0  0  0  0  0
    0.4468   -9.3794    0.0000 O   0  0  0  0  0  0  0  0  0  0  0  0
    1.8602   -7.6677    0.0000 N   0  0  0  0  0  0  0  0  0  0  0  0
    2.2138   -9.1254    0.0000 C   0  0  0  0  0  0  0  0  0  0  0  0
    3.2777   -7.1771    0.0000 C   0  0  0  0  0  0  0  0  0  0  0  0
    3.9008   -8.5415    0.0000 C   0  0  0  0  0  0  0  0  0  0  0  0
    3.0307   -9.7634    0.0000 C   0  0  0  0  0  0  0  0  0  0  0  0
    3.6538  -11.1278    0.0000 C   0  0  0  0  0  0  0  0  0  0  0  0
    1.5375   -9.6208    0.0000 C   0  0  0  0  0  0  0  0  0  0  0  0
    4.5767   -6.4271    0.0000 C   0  0  0  0  0  0  0  0  0  0  0  0
    5.4468   -7.6489    0.0000 O   0  0  0  0  0  0  0  0  0  0  0  0
    5.7103   -5.4448    0.0000 N   0  0  0  0  0  0  0  0  0  0  0  0
    6.7959   -6.4799    0.0000 C   0  0  0  0  0  0  0  0  0  0  0  0
    6.6376   -4.2657    0.0000 C   0  0  0  0  0  0  0  0  0  0  0  0
    7.8994   -5.0767    0.0000 C   0  0  0  0  0  0  0  0  0  0  0  0
    7.8281   -6.5750    0.0000 C   0  0  0  0  0  0  0  0  0  0  0  0
    9.2327   -4.3893    0.0000 C   0  0  0  0  0  0  0  0  0  0  0  0
    7.3249   -2.9324    0.0000 C   0  0  0  0  0  0  0  0  0  0  0  0
    8.7175   -3.4899    0.0000 O   0  0  0  0  0  0  0  0  0  0  0  0
    7.7475   -1.4932    0.0000 N   0  0  0  0  0  0  0  0  0  0  0  0
    9.2204   -1.7771    0.0000 C   0  0  0  0  0  0  0  0  0  0  0  0
  1  2  1  0
  2  3  2  0
  3  4  1  0
  4  5  1  0
  5  6  1  6
  5  7  1  0
  7  8  1  6
  7  9  1  0
  9 10  1  6
 10 11  2  0
 10 12  1  0
 12 13  1  0
 13 14  1  6
 14 15  1  0
 13 16  1  0
 16 17  2  0
 16 18  1  0
 18 19  1  0
 18 20  1  0
 20 21  1  0
 21 22  2  0
 21 23  1  0
 23 24  1  0
 23 25  1  0
 25 26  1  6
 26 27  1  0
 27 28  1  0
 27 29  1  0
 25 30  1  0
 30 31  2  0
 30 32  1  0
 32 33  1  0
 33 34  1  6
 34 35  1  0
 34 36  1  0
 33 37  1  0
 37 38  2  0
 37 39  1  0
 39 40  1  0
 39 41  1  0
 41 42  1  6
 42 43  1  0
 43 44  1  0
 43 45  1  0
 41 46  1  0
 46 47  2  0
 46 48  1  0
 48 49  1  0
 49 50  1  6
 49 51  1  0
 51 52  2  0
 51 53  1  0
 53 54  1  0
 54 55  1  1
 54 56  1  0
 56 57  2  0
 56 58  1  0
 58 59  1  0
 58 60  1  0
 60 61  1  6
 61 62  1  0
 62 63  1  0
 62 64  1  0
 60 65  1  0
 65 66  2  0
 65 67  1  0
 67 68  1  0
 67 69  1  0
 69 70  1  6
 70 71  1  0
 71 72  1  0
 71 73  1  0
 69 74  1  0
 74 75  2  0
 74 76  1  0
 76 77  1  0
 76 78  1  0
 78 79  1  6
 79 80  1  0
 79 81  1  0
 78 82  1  0
 82 83  2  0
 82 84  1  0
 84 85  1  0
 84  9  1  0
M  END
>  <assay_description>  (3) 
Inhibition of human MRP2 expressed in dog MDCK2 cells

>  <molecule_pref_name>  (3) 
CYCLOSPORINE

>  <canonical_smiles>  (3) 
C/C=C/C[C@@H](C)[C@@H](O)[C@H]1C(=O)N[C@@H](CC)C(=O)N(C)CC(=O)N(C)[C@@H](CC(C)C)C(=O)N[C@@H](C(C)C)C(=O)N(C)[C@@H](CC(C)C)C(=O)N[C@@H](C)C(=O)N[C@H](C)C(=O)N(C)[C@@H](CC(C)C)C(=O)N(C)[C@@H](CC(C)C)C(=O)N(C)[C@@H](C(C)C)C(=O)N1C

>  <pchembl_value>  (3) 
4.87

>  <standard_type>  (3) 
IC50

>  <standard_relation>  (3) 
=

>  <standard_value>  (3) 
13600.0

>  <standard_units>  (3) 
nM

>  <target_pref_name>  (3) 
Canalicular multispecific organic anion transporter 1

>  <target_organism>  (3) 
Homo sapiens

$$$$
CHEMBL89768
     RDKit          2D

 35 36  0  0  0  0  0  0  0  0999 V2000
   14.2500   -9.0933    0.0000 C   0  0  0  0  0  0  0  0  0  0  0  0
   12.7500   -9.0933    0.0000 N   0  0  0  0  0  0  0  0  0  0  0  0
   12.0000  -10.3923    0.0000 C   0  0  0  0  0  0  0  0  0  0  0  0
   12.0000   -7.7942    0.0000 C   0  0  0  0  0  0  0  0  0  0  0  0
   12.7500   -6.4952    0.0000 O   0  0  0  0  0  0  0  0  0  0  0  0
   10.5000   -7.7942    0.0000 C   0  0  0  0  0  0  0  0  0  0  0  0
    9.7500   -6.4952    0.0000 C   0  0  0  0  0  0  0  0  0  0  0  0
    8.2500   -6.4952    0.0000 S   0  0  0  0  0  0  0  0  0  0  0  0
    7.5000   -5.1962    0.0000 C   0  0  0  0  0  0  0  0  0  0  0  0
    8.2500   -3.8971    0.0000 S   0  0  0  0  0  0  0  0  0  0  0  0
    9.7500   -3.8971    0.0000 C   0  0  0  0  0  0  0  0  0  0  0  0
   10.5000   -2.5981    0.0000 C   0  0  0  0  0  0  0  0  0  0  0  0
   12.0000   -2.5981    0.0000 C   0  0  0  0  0  0  0  0  0  0  0  0
   12.7500   -3.8971    0.0000 O   0  0  0  0  0  0  0  0  0  0  0  0
   12.7500   -1.2990    0.0000 O   0  0  0  0  0  1  0  0  0  0  0  0
    6.0000   -5.1962    0.0000 C   0  0  0  0  0  0  0  0  0  0  0  0
    5.2500   -6.4952    0.0000 C   0  0  0  0  0  0  0  0  0  0  0  0
    3.7500   -6.4952    0.0000 C   0  0  0  0  0  0  0  0  0  0  0  0
    3.0000   -5.1962    0.0000 C   0  0  0  0  0  0  0  0  0  0  0  0
    3.7500   -3.8971    0.0000 C   0  0  0  0  0  0  0  0  0  0  0  0
    3.0000   -2.5981    0.0000 C   0  0  0  0  0  0  0  0  0  0  0  0
    1.5000   -2.5981    0.0000 C   0  0  0  0  0  0  0  0  0  0  0  0
    0.7500   -1.2990    0.0000 C   0  0  0  0  0  0  0  0  0  0  0  0
    1.5000    0.0000    0.0000 C   0  0  0  0  0  0  0  0  0  0  0  0
    0.7500    1.2990    0.0000 C   0  0  0  0  0  0  0  0  0  0  0  0
   -0.7500    1.2990    0.0000 C   0  0  0  0  0  0  0  0  0  0  0  0
   -1.5000    2.5981    0.0000 C   0  0  0  0  0  0  0  0  0  0  0  0
   -3.0000    2.5981    0.0000 C   0  0  0  0  0  0  0  0  0  0  0  0
   -3.7500    1.2990    0.0000 C   0  0  0  0  0  0  0  0  0  0  0  0
   -5.2500    1.2990    0.0000 Cl  0  0  0  0  0  0  0  0  0  0  0  0
   -3.0000    0.0000    0.0000 C   0  0  0  0  0  0  0  0  0  0  0  0
   -1.5000    0.0000    0.0000 C   0  0  0  0  0  0  0  0  0  0  0  0
   -0.7500   -1.2990    0.0000 N   0  0  0  0  0  0  0  0  0  0  0  0
    5.2500   -3.8971    0.0000 C   0  0  0  0  0  0  0  0  0  0  0  0
    0.0000    3.5981    0.0000 Na  0  0  0  0  0 15  0  0  0  0  0  0
  1  2  1  0
  2  3  1  0
  2  4  1  0
  4  5  2  0
  4  6  1  0
  6  7  1  0
  7  8  1  0
  8  9  1  0
  9 10  1  0
 10 11  1  0
 11 12  1  0
 12 13  1  0
 13 14  2  0
 13 15  1  0
  9 16  1  0
 16 17  2  0
 17 18  1  0
 18 19  2  0
 19 20  1  0
 20 21  1  0
 21 22  2  0
 22 23  1  0
 23 24  2  0
 24 25  1  0
 25 26  2  0
 26 27  1  0
 27 28  2  0
 28 29  1  0
 29 30  1  0
 29 31  2  0
 31 32  1  0
 32 33  2  0
 20 34  2  0
 34 16  1  0
 33 23  1  0
 32 26  1  0
M  CHG  2  15  -1  35   1
M  END
>  <assay_description>  (4) 
Inhibition of human MRP2 expressed in dog MDCK2 cells

>  <molecule_pref_name>  (4) 
None

>  <canonical_smiles>  (4) 
CN(C)C(=O)CCSC(SCCC(=O)[O-])c1cccc(/C=C/c2ccc3ccc(Cl)cc3n2)c1.[Na+]

>  <pchembl_value>  (4) 
4.68

>  <standard_type>  (4) 
IC50

>  <standard_relation>  (4) 
=

>  <standard_value>  (4) 
20700.0

>  <standard_units>  (4) 
nM

>  <target_pref_name>  (4) 
Canalicular multispecific organic anion transporter 1

>  <target_organism>  (4) 
Homo sapiens

$$$$
CHEMBL897
     RDKit          2D

 19 19  0  0  0  0  0  0  0  0999 V2000
    7.5000    2.5981    0.0000 C   0  0  0  0  0  0  0  0  0  0  0  0
    6.7500    1.2990    0.0000 C   0  0  0  0  0  0  0  0  0  0  0  0
    5.2500    1.2990    0.0000 C   0  0  0  0  0  0  0  0  0  0  0  0
    4.5000    0.0000    0.0000 N   0  0  0  0  0  0  0  0  0  0  0  0
    5.2500   -1.2990    0.0000 C   0  0  0  0  0  0  0  0  0  0  0  0
    6.7500   -1.2990    0.0000 C   0  0  0  0  0  0  0  0  0  0  0  0
    7.5000   -2.5981    0.0000 C   0  0  0  0  0  0  0  0  0  0  0  0
    3.0000    0.0000    0.0000 S   0  0  0  0  0  0  0  0  0  0  0  0
    3.0000   -1.5000    0.0000 O   0  0  0  0  0  0  0  0  0  0  0  0
    3.0000    1.5000    0.0000 O   0  0  0  0  0  0  0  0  0  0  0  0
    1.5000    0.0000    0.0000 C   0  0  0  0  0  0  0  0  0  0  0  0
    0.7500   -1.2990    0.0000 C   0  0  0  0  0  0  0  0  0  0  0  0
   -0.7500   -1.2990    0.0000 C   0  0  0  0  0  0  0  0  0  0  0  0
   -1.5000    0.0000    0.0000 C   0  0  0  0  0  0  0  0  0  0  0  0
   -3.0000    0.0000    0.0000 C   0  0  0  0  0  0  0  0  0  0  0  0
   -3.7500   -1.2990    0.0000 O   0  0  0  0  0  0  0  0  0  0  0  0
   -3.7500    1.2990    0.0000 O   0  0  0  0  0  0  0  0  0  0  0  0
   -0.7500    1.2990    0.0000 C   0  0  0  0  0  0  0  0  0  0  0  0
    0.7500    1.2990    0.0000 C   0  0  0  0  0  0  0  0  0  0  0  0
  1  2  1  0
  2  3  1  0
  3  4  1  0
  4  5  1  0
  5  6  1  0
  6  7  1  0
  4  8  1  0
  8  9  2  0
  8 10  2  0
  8 11  1  0
 11 12  2  0
 12 13  1  0
 13 14  2  0
 14 15  1  0
 15 16  2  0
 15 17  1  0
 14 18  1  0
 18 19  2  0
 19 11  1  0
M  END
>  <assay_description>  (5) 
TP_TRANSPORTER: inhibition of SN-38 uptake in bile canalicular membrane vesicles

>  <molecule_pref_name>  (5) 
PROBENECID

>  <canonical_smiles>  (5) 
CCCN(CCC)S(=O)(=O)c1ccc(C(=O)O)cc1

>  <pchembl_value>  (5) 
4.38

>  <standard_type>  (5) 
Ki

>  <standard_relation>  (5) 
=

>  <standard_value>  (5) 
42200.0

>  <standard_units>  (5) 
nM

>  <target_pref_name>  (5) 
Canalicular multispecific organic anion transporter 1

>  <target_organism>  (5) 
Homo sapiens

$$$$
CHEMBL553
     RDKit          2D

 29 31  0  0  0  0  0  0  0  0999 V2000
    6.7500    1.2990    0.0000 C   0  0  0  0  0  0  0  0  0  0  0  0
    6.0000   -0.0000    0.0000 C   0  0  0  0  0  0  0  0  0  0  0  0
    5.2500   -1.2990    0.0000 C   0  0  0  0  0  0  0  0  0  0  0  0
    6.0000   -2.5981    0.0000 C   0  0  0  0  0  0  0  0  0  0  0  0
    5.2500   -3.8971    0.0000 C   0  0  0  0  0  0  0  0  0  0  0  0
    3.7500   -3.8971    0.0000 C   0  0  0  0  0  0  0  0  0  0  0  0
    3.0000   -2.5981    0.0000 C   0  0  0  0  0  0  0  0  0  0  0  0
    1.5000   -2.5981    0.0000 N   0  0  0  0  0  0  0  0  0  0  0  0
    0.7500   -1.2990    0.0000 C   0  0  0  0  0  0  0  0  0  0  0  0
    1.5000    0.0000    0.0000 N   0  0  0  0  0  0  0  0  0  0  0  0
    0.7500    1.2990    0.0000 C   0  0  0  0  0  0  0  0  0  0  0  0
   -0.7500    1.2990    0.0000 N   0  0  0  0  0  0  0  0  0  0  0  0
   -1.5000    0.0000    0.0000 C   0  0  0  0  0  0  0  0  0  0  0  0
   -3.0000    0.0000    0.0000 C   0  0  0  0  0  0  0  0  0  0  0  0
   -3.7500   -1.2990    0.0000 C   0  0  0  0  0  0  0  0  0  0  0  0
   -5.2500   -1.2990    0.0000 O   0  0  0  0  0  0  0  0  0  0  0  0
   -6.0000    0.0000    0.0000 C   0  0  0  0  0  0  0  0  0  0  0  0
   -7.5000   -0.0000    0.0000 C   0  0  0  0  0  0  0  0  0  0  0  0
   -8.2500    1.2990    0.0000 O   0  0  0  0  0  0  0  0  0  0  0  0
   -9.7500    1.2990    0.0000 C   0  0  0  0  0  0  0  0  0  0  0  0
   -3.0000   -2.5981    0.0000 C   0  0  0  0  0  0  0  0  0  0  0  0
   -3.7500   -3.8971    0.0000 O   0  0  0  0  0  0  0  0  0  0  0  0
   -5.2500   -3.8971    0.0000 C   0  0  0  0  0  0  0  0  0  0  0  0
   -6.0000   -5.1962    0.0000 C   0  0  0  0  0  0  0  0  0  0  0  0
   -7.5000   -5.1962    0.0000 O   0  0  0  0  0  0  0  0  0  0  0  0
   -8.2500   -6.4952    0.0000 C   0  0  0  0  0  0  0  0  0  0  0  0
   -1.5000   -2.5981    0.0000 C   0  0  0  0  0  0  0  0  0  0  0  0
   -0.7500   -1.2990    0.0000 C   0  0  0  0  0  0  0  0  0  0  0  0
    3.7500   -1.2990    0.0000 C   0  0  0  0  0  0  0  0  0  0  0  0
  1  2  3  0
  2  3  1  0
  3  4  2  0
  4  5  1  0
  5  6  2  0
  6  7  1  0
  7  8  1  0
  8  9  1  0
  9 10  2  0
 10 11  1  0
 11 12  2  0
 12 13  1  0
 13 14  2  0
 14 15  1  0
 15 16  1  0
 16 17  1  0
 17 18  1  0
 18 19  1  0
 19 20  1  0
 15 21  2  0
 21 22  1  0
 22 23  1  0
 23 24  1  0
 24 25  1  0
 25 26  1  0
 21 27  1  0
 27 28  2  0
  7 29  2  0
 29  3  1  0
 28  9  1  0
 28 13  1  0
M  END
>  <assay_description>  (6) 
Inhibition of human MRP2

>  <molecule_pref_name>  (6) 
ERLOTINIB

>  <canonical_smiles>  (6) 
C#Cc1cccc(Nc2ncnc3cc(OCCOC)c(OCCOC)cc23)c1

>  <pchembl_value>  (6) 
5.00

>  <standard_type>  (6) 
IC50

>  <standard_relation>  (6) 
=

>  <standard_value>  (6) 
10000.0

>  <standard_units>  (6) 
nM

>  <target_pref_name>  (6) 
Canalicular multispecific organic anion transporter 1

>  <target_organism>  (6) 
Homo sapiens

$$$$
CHEMBL3314525
     RDKit          2D

 27 29  0  0  0  0  0  0  0  0999 V2000
    3.7500   -1.2990    0.0000 C   0  0  0  0  0  0  0  0  0  0  0  0
    3.0000    0.0000    0.0000 O   0  0  0  0  0  0  0  0  0  0  0  0
    1.5000    0.0000    0.0000 C   0  0  0  0  0  0  0  0  0  0  0  0
    0.7500   -1.2990    0.0000 C   0  0  0  0  0  0  0  0  0  0  0  0
   -0.7500   -1.2990    0.0000 N   0  0  0  0  0  0  0  0  0  0  0  0
   -1.5000   -2.5981    0.0000 C   0  0  0  0  0  0  0  0  0  0  0  0
   -0.8899   -3.9684    0.0000 N   0  0  0  0  0  0  0  0  0  0  0  0
   -2.0046   -4.9721    0.0000 C   0  0  0  0  0  0  0  0  0  0  0  0
   -3.3037   -4.2221    0.0000 C   0  0  0  0  0  0  0  0  0  0  0  0
   -4.6740   -4.8322    0.0000 C   0  0  0  0  0  0  0  0  0  0  0  0
   -4.8308   -6.3240    0.0000 O   0  0  0  0  0  0  0  0  0  0  0  0
   -5.8875   -3.9505    0.0000 O   0  0  0  0  0  0  0  0  0  0  0  0
   -2.9918   -2.7549    0.0000 S   0  0  0  0  0  0  0  0  0  0  0  0
   -1.5000    0.0000    0.0000 C   0  0  0  0  0  0  0  0  0  0  0  0
   -0.7500    1.2990    0.0000 C   0  0  0  0  0  0  0  0  0  0  0  0
    0.7500    1.2990    0.0000 C   0  0  0  0  0  0  0  0  0  0  0  0
    1.5000    2.5981    0.0000 N   0  0  0  0  0  0  0  0  0  0  0  0
    3.0000    2.5981    0.0000 C   0  0  0  0  0  0  0  0  0  0  0  0
    3.7500    1.2990    0.0000 O   0  0  0  0  0  0  0  0  0  0  0  0
    3.7500    3.8971    0.0000 C   0  0  0  0  0  0  0  0  0  0  0  0
    3.1399    5.2674    0.0000 N   0  0  0  0  0  0  0  0  0  0  0  0
    4.2546    6.2711    0.0000 C   0  0  0  0  0  0  0  0  0  0  0  0
    4.0978    7.7629    0.0000 C   0  0  0  0  0  0  0  0  0  0  0  0
    5.5537    5.5211    0.0000 C   0  0  0  0  0  0  0  0  0  0  0  0
    6.9240    6.1312    0.0000 Cl  0  0  0  0  0  0  0  0  0  0  0  0
    5.2418    4.0539    0.0000 C   0  0  0  0  0  0  0  0  0  0  0  0
    6.2455    2.9392    0.0000 Cl  0  0  0  0  0  0  0  0  0  0  0  0
  1  2  1  0
  3  2  1  1
  3  4  1  0
  4  5  1  0
  5  6  1  0
  6  7  2  0
  7  8  1  0
  8  9  2  0
  9 10  1  0
 10 11  2  0
 10 12  1  0
  9 13  1  0
  5 14  1  0
 14 15  1  0
 15 16  1  0
 16 17  1  1
 17 18  1  0
 18 19  2  0
 18 20  1  0
 20 21  1  0
 21 22  1  0
 22 23  1  0
 22 24  2  0
 24 25  1  0
 24 26  1  0
 26 27  1  0
 16  3  1  0
 26 20  2  0
 13  6  1  0
M  END
>  <assay_description>  (7) 
Stimulation of ATPase activity of human MRP2 assessed as inorganic phosphate

>  <molecule_pref_name>  (7) 
None

>  <canonical_smiles>  (7) 
CO[C@H]1CN(c2ncc(C(=O)O)s2)CC[C@H]1NC(=O)c1[nH]c(C)c(Cl)c1Cl

>  <pchembl_value>  (7) 
4.15

>  <standard_type>  (7) 
EC50

>  <standard_relation>  (7) 
=

>  <standard_value>  (7) 
71000.0

>  <standard_units>  (7) 
nM

>  <target_pref_name>  (7) 
Canalicular multispecific organic anion transporter 1

>  <target_organism>  (7) 
Homo sapiens

$$$$
CHEMBL3314564
     RDKit          2D

 34 36  0  0  0  0  0  0  0  0999 V2000
    7.8850  -10.5278    0.0000 C   0  0  0  0  0  0  0  0  0  0  0  0
    7.7282   -9.0360    0.0000 O   0  0  0  0  0  0  0  0  0  0  0  0
    6.3579   -8.4259    0.0000 C   0  0  0  0  0  0  0  0  0  0  0  0
    6.2011   -6.9341    0.0000 C   0  0  0  0  0  0  0  0  0  0  0  0
    4.8308   -6.3240    0.0000 N   0  0  0  0  0  0  0  0  0  0  0  0
    4.6740   -4.8322    0.0000 C   0  0  0  0  0  0  0  0  0  0  0  0
    5.8875   -3.9505    0.0000 O   0  0  0  0  0  0  0  0  0  0  0  0
    3.3037   -4.2221    0.0000 C   0  0  0  0  0  0  0  0  0  0  0  0
    2.9918   -2.7549    0.0000 N   0  0  0  0  0  0  0  0  0  0  0  0
    1.5000   -2.5981    0.0000 C   0  0  0  0  0  0  0  0  0  0  0  0
    0.7500   -1.2990    0.0000 N   0  0  0  0  0  0  0  0  0  0  0  0
    1.5000    0.0000    0.0000 C   0  0  0  0  0  0  0  0  0  0  0  0
    0.7500    1.2990    0.0000 C   0  0  0  0  0  0  0  0  0  0  0  0
   -0.7500    1.2990    0.0000 C   0  0  0  0  0  0  0  0  0  0  0  0
   -1.5000    2.5981    0.0000 N   0  0  0  0  0  0  0  0  0  0  0  0
   -0.7500    3.8971    0.0000 C   0  0  0  0  0  0  0  0  0  0  0  0
    0.7500    3.8971    0.0000 O   0  0  0  0  0  0  0  0  0  0  0  0
   -1.5000    5.1962    0.0000 C   0  0  0  0  0  0  0  0  0  0  0  0
   -2.9918    5.3529    0.0000 N   0  0  0  0  0  0  0  0  0  0  0  0
   -3.3037    6.8202    0.0000 C   0  0  0  0  0  0  0  0  0  0  0  0
   -4.6740    7.4303    0.0000 C   0  0  0  0  0  0  0  0  0  0  0  0
   -2.0046    7.5702    0.0000 C   0  0  0  0  0  0  0  0  0  0  0  0
   -1.8478    9.0619    0.0000 Cl  0  0  0  0  0  0  0  0  0  0  0  0
   -0.8899    6.5665    0.0000 C   0  0  0  0  0  0  0  0  0  0  0  0
    0.5773    6.8783    0.0000 Cl  0  0  0  0  0  0  0  0  0  0  0  0
   -1.5000    0.0000    0.0000 C   0  0  0  0  0  0  0  0  0  0  0  0
   -3.0000    0.0000    0.0000 O   0  0  0  0  0  0  0  0  0  0  0  0
   -3.7500   -1.2990    0.0000 C   0  0  0  0  0  0  0  0  0  0  0  0
   -0.7500   -1.2990    0.0000 C   0  0  0  0  0  0  0  0  0  0  0  0
    0.8899   -3.9684    0.0000 S   0  0  0  0  0  0  0  0  0  0  0  0
    2.0046   -4.9721    0.0000 C   0  0  0  0  0  0  0  0  0  0  0  0
    1.8478   -6.4639    0.0000 C   0  0  0  0  0  0  0  0  0  0  0  0
    3.0613   -7.3456    0.0000 O   0  0  0  0  0  0  0  0  0  0  0  0
    0.4775   -7.0740    0.0000 O   0  0  0  0  0  0  0  0  0  0  0  0
  1  2  1  0
  2  3  1  0
  3  4  1  0
  4  5  1  0
  5  6  1  0
  6  7  2  0
  6  8  1  0
  8  9  1  0
  9 10  2  0
 10 11  1  0
 11 12  1  0
 12 13  1  0
 13 14  1  0
 14 15  1  6
 15 16  1  0
 16 17  2  0
 16 18  1  0
 18 19  1  0
 19 20  1  0
 20 21  1  0
 20 22  2  0
 22 23  1  0
 22 24  1  0
 24 25  1  0
 14 26  1  0
 26 27  1  6
 27 28  1  0
 26 29  1  0
 10 30  1  0
 30 31  1  0
 31 32  1  0
 32 33  2  0
 32 34  1  0
 31  8  2  0
 29 11  1  0
 24 18  2  0
M  END
>  <assay_description>  (8) 
Inhibition of ATPase activity of human MRP2 assessed as inorganic phosphate

>  <molecule_pref_name>  (8) 
None

>  <canonical_smiles>  (8) 
COCCNC(=O)c1nc(N2CC[C@@H](NC(=O)c3[nH]c(C)c(Cl)c3Cl)[C@@H](OC)C2)sc1C(=O)O

>  <pchembl_value>  (8) 
4.00

>  <standard_type>  (8) 
IC50

>  <standard_relation>  (8) 
=

>  <standard_value>  (8) 
100000.0

>  <standard_units>  (8) 
nM

>  <target_pref_name>  (8) 
Canalicular multispecific organic anion transporter 1

>  <target_organism>  (8) 
Homo sapiens

$$$$
CHEMBL3314565
     RDKit          2D

 35 37  0  0  0  0  0  0  0  0999 V2000
    9.9984   -5.7808    0.0000 C   0  0  0  0  0  0  0  0  0  0  0  0
    8.7849   -6.6625    0.0000 O   0  0  0  0  0  0  0  0  0  0  0  0
    7.4146   -6.0524    0.0000 C   0  0  0  0  0  0  0  0  0  0  0  0
    6.2011   -6.9341    0.0000 C   0  0  0  0  0  0  0  0  0  0  0  0
    6.3579   -8.4259    0.0000 C   0  0  0  0  0  0  0  0  0  0  0  0
    4.8308   -6.3240    0.0000 N   0  0  0  0  0  0  0  0  0  0  0  0
    4.6740   -4.8322    0.0000 C   0  0  0  0  0  0  0  0  0  0  0  0
    5.8875   -3.9505    0.0000 O   0  0  0  0  0  0  0  0  0  0  0  0
    3.3037   -4.2221    0.0000 C   0  0  0  0  0  0  0  0  0  0  0  0
    2.9918   -2.7549    0.0000 N   0  0  0  0  0  0  0  0  0  0  0  0
    1.5000   -2.5981    0.0000 C   0  0  0  0  0  0  0  0  0  0  0  0
    0.7500   -1.2990    0.0000 N   0  0  0  0  0  0  0  0  0  0  0  0
    1.5000    0.0000    0.0000 C   0  0  0  0  0  0  0  0  0  0  0  0
    0.7500    1.2990    0.0000 C   0  0  0  0  0  0  0  0  0  0  0  0
   -0.7500    1.2990    0.0000 C   0  0  0  0  0  0  0  0  0  0  0  0
   -1.5000    2.5981    0.0000 N   0  0  0  0  0  0  0  0  0  0  0  0
   -0.7500    3.8971    0.0000 C   0  0  0  0  0  0  0  0  0  0  0  0
    0.7500    3.8971    0.0000 O   0  0  0  0  0  0  0  0  0  0  0  0
   -1.5000    5.1962    0.0000 C   0  0  0  0  0  0  0  0  0  0  0  0
   -2.9918    5.3529    0.0000 N   0  0  0  0  0  0  0  0  0  0  0  0
   -3.3037    6.8202    0.0000 C   0  0  0  0  0  0  0  0  0  0  0  0
   -4.6740    7.4303    0.0000 C   0  0  0  0  0  0  0  0  0  0  0  0
   -2.0046    7.5702    0.0000 C   0  0  0  0  0  0  0  0  0  0  0  0
   -1.8478    9.0619    0.0000 Cl  0  0  0  0  0  0  0  0  0  0  0  0
   -0.8899    6.5665    0.0000 C   0  0  0  0  0  0  0  0  0  0  0  0
    0.5773    6.8783    0.0000 Cl  0  0  0  0  0  0  0  0  0  0  0  0
   -1.5000    0.0000    0.0000 C   0  0  0  0  0  0  0  0  0  0  0  0
   -3.0000    0.0000    0.0000 O   0  0  0  0  0  0  0  0  0  0  0  0
   -3.7500   -1.2990    0.0000 C   0  0  0  0  0  0  0  0  0  0  0  0
   -0.7500   -1.2990    0.0000 C   0  0  0  0  0  0  0  0  0  0  0  0
    0.8899   -3.9684    0.0000 S   0  0  0  0  0  0  0  0  0  0  0  0
    2.0046   -4.9721    0.0000 C   0  0  0  0  0  0  0  0  0  0  0  0
    1.8478   -6.4639    0.0000 C   0  0  0  0  0  0  0  0  0  0  0  0
    3.0613   -7.3456    0.0000 O   0  0  0  0  0  0  0  0  0  0  0  0
    0.4775   -7.0740    0.0000 O   0  0  0  0  0  0  0  0  0  0  0  0
  1  2  1  0
  2  3  1  0
  3  4  1  0
  4  5  1  6
  4  6  1  0
  6  7  1  0
  7  8  2  0
  7  9  1  0
  9 10  1  0
 10 11  2  0
 11 12  1  0
 12 13  1  0
 13 14  1  0
 14 15  1  0
 15 16  1  6
 16 17  1  0
 17 18  2  0
 17 19  1  0
 19 20  1  0
 20 21  1  0
 21 22  1  0
 21 23  2  0
 23 24  1  0
 23 25  1  0
 25 26  1  0
 15 27  1  0
 27 28  1  6
 28 29  1  0
 27 30  1  0
 11 31  1  0
 31 32  1  0
 32 33  1  0
 33 34  2  0
 33 35  1  0
 32  9  2  0
 30 12  1  0
 25 19  2  0
M  END
>  <assay_description>  (9) 
Inhibition of ATPase activity of human MRP2 assessed as inorganic phosphate

>  <molecule_pref_name>  (9) 
AZD-5099

>  <canonical_smiles>  (9) 
COC[C@H](C)NC(=O)c1nc(N2CC[C@@H](NC(=O)c3[nH]c(C)c(Cl)c3Cl)[C@@H](OC)C2)sc1C(=O)O

>  <pchembl_value>  (9) 
4.23

>  <standard_type>  (9) 
IC50

>  <standard_relation>  (9) 
=

>  <standard_value>  (9) 
59000.0

>  <standard_units>  (9) 
nM

>  <target_pref_name>  (9) 
Canalicular multispecific organic anion transporter 1

>  <target_organism>  (9) 
Homo sapiens

$$$$
CHEMBL1651956
     RDKit          2D

 86 86  0  0  0  0  0  0  0  0999 V2000
   12.3901   -5.1962    0.0000 C   0  0  0  0  0  0  0  0  0  0  0  0
   11.6401   -3.8971    0.0000 C   0  0  0  0  0  0  0  0  0  0  0  0
   10.1401   -3.8971    0.0000 C   0  0  0  0  0  0  0  0  0  0  0  0
    9.3901   -2.5981    0.0000 C   0  0  0  0  0  0  0  0  0  0  0  0
   10.1401   -1.2990    0.0000 C   0  0  0  0  0  0  0  0  0  0  0  0
   11.6401   -1.2990    0.0000 C   0  0  0  0  0  0  0  0  0  0  0  0
    9.3901    0.0000    0.0000 C   0  0  0  0  0  0  0  0  0  0  0  0
   10.1401    1.2990    0.0000 O   0  0  0  0  0  0  0  0  0  0  0  0
    7.8901    0.0000    0.0000 C   0  0  0  0  0  0  0  0  0  0  0  0
    7.7475    1.4932    0.0000 C   0  0  0  0  0  0  0  0  0  0  0  0
    9.2204    1.7771    0.0000 O   0  0  0  0  0  0  0  0  0  0  0  0
    7.3249    2.9324    0.0000 N   0  0  0  0  0  0  0  0  0  0  0  0
    6.6376    4.2657    0.0000 C   0  0  0  0  0  0  0  0  0  0  0  0
    7.8994    5.0767    0.0000 C   0  0  0  0  0  0  0  0  0  0  0  0
    9.2327    4.3893    0.0000 C   0  0  0  0  0  0  0  0  0  0  0  0
    5.7103    5.4448    0.0000 C   0  0  0  0  0  0  0  0  0  0  0  0
    6.7959    6.4799    0.0000 O   0  0  0  0  0  0  0  0  0  0  0  0
    4.5767    6.4271    0.0000 N   0  0  0  0  0  0  0  0  0  0  0  0
    5.4468    7.6489    0.0000 C   0  0  0  0  0  0  0  0  0  0  0  0
    3.2777    7.1771    0.0000 C   0  0  0  0  0  0  0  0  0  0  0  0
    3.9008    8.5415    0.0000 C   0  0  0  0  0  0  0  0  0  0  0  0
    1.8602    7.6677    0.0000 C   0  0  0  0  0  0  0  0  0  0  0  0
    2.2138    9.1254    0.0000 O   0  0  0  0  0  0  0  0  0  0  0  0
    0.3754    7.8811    0.0000 N   0  0  0  0  0  0  0  0  0  0  0  0
    0.4468    9.3794    0.0000 C   0  0  0  0  0  0  0  0  0  0  0  0
    1.7801   10.0668    0.0000 C   0  0  0  0  0  0  0  0  0  0  0  0
   -1.1229    7.8098    0.0000 C   0  0  0  0  0  0  0  0  0  0  0  0
   -1.3363    9.2945    0.0000 C   0  0  0  0  0  0  0  0  0  0  0  0
   -0.1573   10.2217    0.0000 C   0  0  0  0  0  0  0  0  0  0  0  0
   -2.7289    9.8520    0.0000 C   0  0  0  0  0  0  0  0  0  0  0  0
   -2.5806    7.4561    0.0000 C   0  0  0  0  0  0  0  0  0  0  0  0
   -3.0712    8.8736    0.0000 O   0  0  0  0  0  0  0  0  0  0  0  0
   -3.9450    6.8330    0.0000 N   0  0  0  0  0  0  0  0  0  0  0  0
   -5.1669    5.9629    0.0000 C   0  0  0  0  0  0  0  0  0  0  0  0
   -6.1492    7.0966    0.0000 C   0  0  0  0  0  0  0  0  0  0  0  0
   -5.6586    8.5141    0.0000 C   0  0  0  0  0  0  0  0  0  0  0  0
   -7.6221    6.8127    0.0000 C   0  0  0  0  0  0  0  0  0  0  0  0
   -6.2020    4.8773    0.0000 C   0  0  0  0  0  0  0  0  0  0  0  0
   -7.3811    5.8046    0.0000 O   0  0  0  0  0  0  0  0  0  0  0  0
   -7.0130    3.6154    0.0000 N   0  0  0  0  0  0  0  0  0  0  0  0
   -8.3462    4.3028    0.0000 C   0  0  0  0  0  0  0  0  0  0  0  0
   -7.5705    2.2229    0.0000 C   0  0  0  0  0  0  0  0  0  0  0  0
   -9.0097    2.6455    0.0000 C   0  0  0  0  0  0  0  0  0  0  0  0
   -9.3634    4.1032    0.0000 C   0  0  0  0  0  0  0  0  0  0  0  0
  -10.8026    4.5258    0.0000 C   0  0  0  0  0  0  0  0  0  0  0  0
   -8.2778    5.1383    0.0000 C   0  0  0  0  0  0  0  0  0  0  0  0
   -7.8544    0.7500    0.0000 C   0  0  0  0  0  0  0  0  0  0  0  0
   -9.3476    0.8926    0.0000 O   0  0  0  0  0  0  0  0  0  0  0  0
   -7.8544   -0.7500    0.0000 N   0  0  0  0  0  0  0  0  0  0  0  0
   -7.5705   -2.2229    0.0000 C   0  0  0  0  0  0  0  0  0  0  0  0
   -9.0097   -2.6455    0.0000 C   0  0  0  0  0  0  0  0  0  0  0  0
   -7.0130   -3.6154    0.0000 C   0  0  0  0  0  0  0  0  0  0  0  0
   -8.3462   -4.3028    0.0000 O   0  0  0  0  0  0  0  0  0  0  0  0
   -6.2020   -4.8773    0.0000 N   0  0  0  0  0  0  0  0  0  0  0  0
   -5.1669   -5.9629    0.0000 C   0  0  0  0  0  0  0  0  0  0  0  0
   -6.1492   -7.0966    0.0000 C   0  0  0  0  0  0  0  0  0  0  0  0
   -3.9450   -6.8330    0.0000 C   0  0  0  0  0  0  0  0  0  0  0  0
   -4.6950   -8.1320    0.0000 O   0  0  0  0  0  0  0  0  0  0  0  0
   -2.5806   -7.4561    0.0000 N   0  0  0  0  0  0  0  0  0  0  0  0
   -3.0712   -8.8736    0.0000 C   0  0  0  0  0  0  0  0  0  0  0  0
   -1.1229   -7.8098    0.0000 C   0  0  0  0  0  0  0  0  0  0  0  0
   -1.3363   -9.2945    0.0000 C   0  0  0  0  0  0  0  0  0  0  0  0
   -2.7289   -9.8520    0.0000 C   0  0  0  0  0  0  0  0  0  0  0  0
   -2.9424  -11.3367    0.0000 C   0  0  0  0  0  0  0  0  0  0  0  0
   -3.9080   -8.9248    0.0000 C   0  0  0  0  0  0  0  0  0  0  0  0
    0.3754   -7.8811    0.0000 C   0  0  0  0  0  0  0  0  0  0  0  0
    0.4468   -9.3794    0.0000 O   0  0  0  0  0  0  0  0  0  0  0  0
    1.8602   -7.6677    0.0000 N   0  0  0  0  0  0  0  0  0  0  0  0
    2.2138   -9.1254    0.0000 C   0  0  0  0  0  0  0  0  0  0  0  0
    3.2777   -7.1771    0.0000 C   0  0  0  0  0  0  0  0  0  0  0  0
    3.9008   -8.5415    0.0000 C   0  0  0  0  0  0  0  0  0  0  0  0
    3.0307   -9.7634    0.0000 C   0  0  0  0  0  0  0  0  0  0  0  0
    3.6538  -11.1278    0.0000 C   0  0  0  0  0  0  0  0  0  0  0  0
    1.5375   -9.6208    0.0000 C   0  0  0  0  0  0  0  0  0  0  0  0
    4.5767   -6.4271    0.0000 C   0  0  0  0  0  0  0  0  0  0  0  0
    5.4468   -7.6489    0.0000 O   0  0  0  0  0  0  0  0  0  0  0  0
    5.7103   -5.4448    0.0000 N   0  0  0  0  0  0  0  0  0  0  0  0
    6.7959   -6.4799    0.0000 C   0  0  0  0  0  0  0  0  0  0  0  0
    6.6376   -4.2657    0.0000 C   0  0  0  0  0  0  0  0  0  0  0  0
    7.8994   -5.0767    0.0000 C   0  0  0  0  0  0  0  0  0  0  0  0
    7.8281   -6.5750    0.0000 C   0  0  0  0  0  0  0  0  0  0  0  0
    9.2327   -4.3893    0.0000 C   0  0  0  0  0  0  0  0  0  0  0  0
    7.3249   -2.9324    0.0000 C   0  0  0  0  0  0  0  0  0  0  0  0
    8.7175   -3.4899    0.0000 O   0  0  0  0  0  0  0  0  0  0  0  0
    7.7475   -1.4932    0.0000 N   0  0  0  0  0  0  0  0  0  0  0  0
    9.2204   -1.7771    0.0000 C   0  0  0  0  0  0  0  0  0  0  0  0
  1  2  1  0
  2  3  2  0
  3  4  1  0
  4  5  1  0
  5  6  1  6
  5  7  1  0
  7  8  1  6
  7  9  1  0
  9 10  1  6
 10 11  2  0
 10 12  1  0
 12 13  1  0
 13 14  1  6
 14 15  1  0
 13 16  1  0
 16 17  2  0
 16 18  1  0
 18 19  1  0
 18 20  1  0
 20 21  1  1
 20 22  1  0
 22 23  2  0
 22 24  1  0
 24 25  1  0
 25 26  1  0
 24 27  1  0
 27 28  1  6
 28 29  1  0
 28 30  1  0
 27 31  1  0
 31 32  2  0
 31 33  1  0
 33 34  1  0
 34 35  1  6
 35 36  1  0
 35 37  1  0
 34 38  1  0
 38 39  2  0
 38 40  1  0
 40 41  1  0
 40 42  1  0
 42 43  1  6
 43 44  1  0
 44 45  1  0
 44 46  1  0
 42 47  1  0
 47 48  2  0
 47 49  1  0
 49 50  1  0
 50 51  1  6
 50 52  1  0
 52 53  2  0
 52 54  1  0
 54 55  1  0
 55 56  1  1
 55 57  1  0
 57 58  2  0
 57 59  1  0
 59 60  1  0
 59 61  1  0
 61 62  1  6
 62 63  1  0
 63 64  1  0
 63 65  1  0
 61 66  1  0
 66 67  2  0
 66 68  1  0
 68 69  1  0
 68 70  1  0
 70 71  1  6
 71 72  1  0
 72 73  1  0
 72 74  1  0
 70 75  1  0
 75 76  2  0
 75 77  1  0
 77 78  1  0
 77 79  1  0
 79 80  1  6
 80 81  1  0
 80 82  1  0
 79 83  1  0
 83 84  2  0
 83 85  1  0
 85 86  1  0
 85  9  1  0
M  END
>  <assay_description>  (10) 
Inhibition of human MRP2 expressed in Sf9 cells inside out vesicles using CDCF substrate

>  <molecule_pref_name>  (10) 
ALISPORIVIR

>  <canonical_smiles>  (10) 
C/C=C/C[C@@H](C)[C@@H](O)[C@H]1C(=O)N[C@@H](CC)C(=O)N(C)[C@H](C)C(=O)N(CC)[C@@H](C(C)C)C(=O)N[C@@H](C(C)C)C(=O)N(C)[C@@H](CC(C)C)C(=O)N[C@@H](C)C(=O)N[C@H](C)C(=O)N(C)[C@@H](CC(C)C)C(=O)N(C)[C@@H](CC(C)C)C(=O)N(C)[C@@H](C(C)C)C(=O)N1C

>  <pchembl_value>  (10) 
4.75

>  <standard_type>  (10) 
IC50

>  <standard_relation>  (10) 
=

>  <standard_value>  (10) 
18000.0

>  <standard_units>  (10) 
nM

>  <target_pref_name>  (10) 
Canalicular multispecific organic anion transporter 1

>  <target_organism>  (10) 
Homo sapiens

$$$$
CHEMBL487805
     RDKit          2D

 33 36  0  0  0  0  0  0  0  0999 V2000
    7.5000   -7.7942    0.0000 O   0  0  0  0  0  0  0  0  0  0  0  0
    6.0000   -7.7942    0.0000 C   0  0  0  0  0  0  0  0  0  0  0  0
    5.2500   -9.0933    0.0000 O   0  0  0  0  0  0  0  0  0  0  0  0
    5.2500   -6.4952    0.0000 C   0  0  0  0  0  0  0  0  0  0  0  0
    3.7500   -6.4952    0.0000 O   0  0  0  0  0  0  0  0  0  0  0  0
    3.0000   -5.1962    0.0000 C   0  0  0  0  0  0  0  0  0  0  0  0
    1.5000   -5.1962    0.0000 O   0  0  0  0  0  0  0  0  0  0  0  0
    0.7500   -3.8971    0.0000 C   0  0  0  0  0  0  0  0  0  0  0  0
    1.5000   -2.5981    0.0000 C   0  0  0  0  0  0  0  0  0  0  0  0
    0.7500   -1.2990    0.0000 C   0  0  0  0  0  0  0  0  0  0  0  0
    1.5000    0.0000    0.0000 O   0  0  0  0  0  0  0  0  0  0  0  0
    0.7500    1.2990    0.0000 C   0  0  0  0  0  0  0  0  0  0  0  0
    1.5000    2.5981    0.0000 C   0  0  0  0  0  0  0  0  0  0  0  0
    3.0000    2.5981    0.0000 C   0  0  0  0  0  0  0  0  0  0  0  0
    3.7500    3.8971    0.0000 C   0  0  0  0  0  0  0  0  0  0  0  0
    3.0000    5.1962    0.0000 C   0  0  0  0  0  0  0  0  0  0  0  0
    3.7500    6.4952    0.0000 O   0  0  0  0  0  0  0  0  0  0  0  0
    1.5000    5.1962    0.0000 C   0  0  0  0  0  0  0  0  0  0  0  0
    0.7500    3.8971    0.0000 C   0  0  0  0  0  0  0  0  0  0  0  0
   -0.7500    1.2990    0.0000 C   0  0  0  0  0  0  0  0  0  0  0  0
   -1.5000    0.0000    0.0000 C   0  0  0  0  0  0  0  0  0  0  0  0
   -3.0000    0.0000    0.0000 O   0  0  0  0  0  0  0  0  0  0  0  0
   -0.7500   -1.2990    0.0000 C   0  0  0  0  0  0  0  0  0  0  0  0
   -1.5000   -2.5981    0.0000 C   0  0  0  0  0  0  0  0  0  0  0  0
   -3.0000   -2.5981    0.0000 O   0  0  0  0  0  0  0  0  0  0  0  0
   -0.7500   -3.8971    0.0000 C   0  0  0  0  0  0  0  0  0  0  0  0
   -1.5000   -5.1962    0.0000 O   0  0  0  0  0  0  0  0  0  0  0  0
    3.7500   -3.8971    0.0000 C   0  0  0  0  0  0  0  0  0  0  0  0
    3.0000   -2.5981    0.0000 O   0  0  0  0  0  0  0  0  0  0  0  0
    5.2500   -3.8971    0.0000 C   0  0  0  0  0  0  0  0  0  0  0  0
    6.0000   -2.5981    0.0000 O   0  0  0  0  0  0  0  0  0  0  0  0
    6.0000   -5.1962    0.0000 C   0  0  0  0  0  0  0  0  0  0  0  0
    7.5000   -5.1962    0.0000 O   0  0  0  0  0  0  0  0  0  0  0  0
  1  2  2  0
  2  3  1  0
  4  2  1  1
  4  5  1  0
  5  6  1  0
  6  7  1  1
  7  8  1  0
  8  9  2  0
  9 10  1  0
 10 11  1  0
 11 12  1  0
 12 13  1  0
 13 14  2  0
 14 15  1  0
 15 16  2  0
 16 17  1  0
 16 18  1  0
 18 19  2  0
 12 20  2  0
 20 21  1  0
 21 22  2  0
 21 23  1  0
 23 24  1  0
 24 25  1  0
 24 26  2  0
 26 27  1  0
  6 28  1  0
 28 29  1  6
 28 30  1  0
 30 31  1  1
 30 32  1  0
 32 33  1  6
 32  4  1  0
 26  8  1  0
 23 10  2  0
 19 13  1  0
M  END
>  <assay_description>  (11) 
Inhibition of human MRP2-mediated estradiol-17beta-D-glucuronide formation using inside-out membrane vesicles by LC-MS/MS analysis

>  <molecule_pref_name>  (11) 
SCUTELLARIN

>  <canonical_smiles>  (11) 
O=C(O)[C@H]1O[C@@H](Oc2cc3oc(-c4ccc(O)cc4)cc(=O)c3c(O)c2O)[C@H](O)[C@@H](O)[C@@H]1O

>  <pchembl_value>  (11) 
4.12

>  <standard_type>  (11) 
IC50

>  <standard_relation>  (11) 
=

>  <standard_value>  (11) 
75000.0

>  <standard_units>  (11) 
nM

>  <target_pref_name>  (11) 
Canalicular multispecific organic anion transporter 1

>  <target_organism>  (11) 
Homo sapiens

$$$$
CHEMBL3542370
     RDKit          2D

 33 36  0  0  0  0  0  0  0  0999 V2000
   -5.2500   -1.2990    0.0000 O   0  0  0  0  0  0  0  0  0  0  0  0
   -6.0000   -2.5981    0.0000 C   0  0  0  0  0  0  0  0  0  0  0  0
   -7.5000   -2.5981    0.0000 O   0  0  0  0  0  0  0  0  0  0  0  0
   -5.2500   -3.8971    0.0000 C   0  0  0  0  0  0  0  0  0  0  0  0
   -3.7500   -3.8971    0.0000 O   0  0  0  0  0  0  0  0  0  0  0  0
   -3.0000   -5.1962    0.0000 C   0  0  0  0  0  0  0  0  0  0  0  0
   -1.5000   -5.1962    0.0000 O   0  0  0  0  0  0  0  0  0  0  0  0
   -0.7500   -3.8971    0.0000 C   0  0  0  0  0  0  0  0  0  0  0  0
    0.7500   -3.8971    0.0000 C   0  0  0  0  0  0  0  0  0  0  0  0
    1.5000   -5.1962    0.0000 O   0  0  0  0  0  0  0  0  0  0  0  0
    1.5000   -2.5981    0.0000 C   0  0  0  0  0  0  0  0  0  0  0  0
    0.7500   -1.2990    0.0000 C   0  0  0  0  0  0  0  0  0  0  0  0
    1.5000    0.0000    0.0000 O   0  0  0  0  0  0  0  0  0  0  0  0
    0.7500    1.2990    0.0000 C   0  0  0  0  0  0  0  0  0  0  0  0
    1.5000    2.5981    0.0000 C   0  0  0  0  0  0  0  0  0  0  0  0
    3.0000    2.5981    0.0000 C   0  0  0  0  0  0  0  0  0  0  0  0
    3.7500    3.8971    0.0000 C   0  0  0  0  0  0  0  0  0  0  0  0
    3.0000    5.1962    0.0000 C   0  0  0  0  0  0  0  0  0  0  0  0
    3.7500    6.4952    0.0000 O   0  0  0  0  0  0  0  0  0  0  0  0
    1.5000    5.1962    0.0000 C   0  0  0  0  0  0  0  0  0  0  0  0
    0.7500    3.8971    0.0000 C   0  0  0  0  0  0  0  0  0  0  0  0
   -0.7500    1.2990    0.0000 C   0  0  0  0  0  0  0  0  0  0  0  0
   -1.5000    0.0000    0.0000 C   0  0  0  0  0  0  0  0  0  0  0  0
   -3.0000    0.0000    0.0000 O   0  0  0  0  0  0  0  0  0  0  0  0
   -0.7500   -1.2990    0.0000 C   0  0  0  0  0  0  0  0  0  0  0  0
   -1.5000   -2.5981    0.0000 C   0  0  0  0  0  0  0  0  0  0  0  0
   -3.0000   -2.5981    0.0000 O   0  0  0  0  0  0  0  0  0  0  0  0
   -3.7500   -6.4952    0.0000 C   0  0  0  0  0  0  0  0  0  0  0  0
   -3.0000   -7.7942    0.0000 O   0  0  0  0  0  0  0  0  0  0  0  0
   -5.2500   -6.4952    0.0000 C   0  0  0  0  0  0  0  0  0  0  0  0
   -6.0000   -7.7942    0.0000 O   0  0  0  0  0  0  0  0  0  0  0  0
   -6.0000   -5.1962    0.0000 C   0  0  0  0  0  0  0  0  0  0  0  0
   -7.5000   -5.1962    0.0000 O   0  0  0  0  0  0  0  0  0  0  0  0
  1  2  2  0
  2  3  1  0
  4  2  1  1
  4  5  1  0
  5  6  1  0
  6  7  1  1
  7  8  1  0
  8  9  2  0
  9 10  1  0
  9 11  1  0
 11 12  2  0
 12 13  1  0
 13 14  1  0
 14 15  1  0
 15 16  2  0
 16 17  1  0
 17 18  2  0
 18 19  1  0
 18 20  1  0
 20 21  2  0
 14 22  2  0
 22 23  1  0
 23 24  2  0
 23 25  1  0
 25 26  2  0
 26 27  1  0
  6 28  1  0
 28 29  1  6
 28 30  1  0
 30 31  1  1
 30 32  1  0
 32 33  1  6
 32  4  1  0
 26  8  1  0
 25 12  1  0
 21 15  1  0
M  END
>  <assay_description>  (12) 
Inhibition of human MRP2-mediated estradiol-17beta-D-glucuronide formation using inside-out membrane vesicles by LC-MS/MS analysis

>  <molecule_pref_name>  (12) 
None

>  <canonical_smiles>  (12) 
O=C(O)[C@H]1O[C@@H](Oc2c(O)cc3oc(-c4ccc(O)cc4)cc(=O)c3c2O)[C@H](O)[C@@H](O)[C@@H]1O

>  <pchembl_value>  (12) 
4.30

>  <standard_type>  (12) 
IC50

>  <standard_relation>  (12) 
=

>  <standard_value>  (12) 
50000.0

>  <standard_units>  (12) 
nM

>  <target_pref_name>  (12) 
Canalicular multispecific organic anion transporter 1

>  <target_organism>  (12) 
Homo sapiens

$$$$
CHEMBL160
     RDKit          2D

 85 85  0  0  0  0  0  0  0  0999 V2000
   12.3901   -5.1962    0.0000 C   0  0  0  0  0  0  0  0  0  0  0  0
   11.6401   -3.8971    0.0000 C   0  0  0  0  0  0  0  0  0  0  0  0
   10.1401   -3.8971    0.0000 C   0  0  0  0  0  0  0  0  0  0  0  0
    9.3901   -2.5981    0.0000 C   0  0  0  0  0  0  0  0  0  0  0  0
   10.1401   -1.2990    0.0000 C   0  0  0  0  0  0  0  0  0  0  0  0
   11.6401   -1.2990    0.0000 C   0  0  0  0  0  0  0  0  0  0  0  0
    9.3901    0.0000    0.0000 C   0  0  0  0  0  0  0  0  0  0  0  0
   10.1401    1.2990    0.0000 O   0  0  0  0  0  0  0  0  0  0  0  0
    7.8901    0.0000    0.0000 C   0  0  0  0  0  0  0  0  0  0  0  0
    7.7475    1.4932    0.0000 C   0  0  0  0  0  0  0  0  0  0  0  0
    9.2204    1.7771    0.0000 O   0  0  0  0  0  0  0  0  0  0  0  0
    7.3249    2.9324    0.0000 N   0  0  0  0  0  0  0  0  0  0  0  0
    6.6376    4.2657    0.0000 C   0  0  0  0  0  0  0  0  0  0  0  0
    7.8994    5.0767    0.0000 C   0  0  0  0  0  0  0  0  0  0  0  0
    9.2327    4.3893    0.0000 C   0  0  0  0  0  0  0  0  0  0  0  0
    5.7103    5.4448    0.0000 C   0  0  0  0  0  0  0  0  0  0  0  0
    6.7959    6.4799    0.0000 O   0  0  0  0  0  0  0  0  0  0  0  0
    4.5767    6.4271    0.0000 N   0  0  0  0  0  0  0  0  0  0  0  0
    5.4468    7.6489    0.0000 C   0  0  0  0  0  0  0  0  0  0  0  0
    3.2777    7.1771    0.0000 C   0  0  0  0  0  0  0  0  0  0  0  0
    1.8602    7.6677    0.0000 C   0  0  0  0  0  0  0  0  0  0  0  0
    2.2138    9.1254    0.0000 O   0  0  0  0  0  0  0  0  0  0  0  0
    0.3754    7.8811    0.0000 N   0  0  0  0  0  0  0  0  0  0  0  0
    0.4468    9.3794    0.0000 C   0  0  0  0  0  0  0  0  0  0  0  0
   -1.1229    7.8098    0.0000 C   0  0  0  0  0  0  0  0  0  0  0  0
   -1.3363    9.2945    0.0000 C   0  0  0  0  0  0  0  0  0  0  0  0
   -0.1573   10.2217    0.0000 C   0  0  0  0  0  0  0  0  0  0  0  0
   -0.3707   11.7065    0.0000 C   0  0  0  0  0  0  0  0  0  0  0  0
    1.2353    9.6642    0.0000 C   0  0  0  0  0  0  0  0  0  0  0  0
   -2.5806    7.4561    0.0000 C   0  0  0  0  0  0  0  0  0  0  0  0
   -3.0712    8.8736    0.0000 O   0  0  0  0  0  0  0  0  0  0  0  0
   -3.9450    6.8330    0.0000 N   0  0  0  0  0  0  0  0  0  0  0  0
   -5.1669    5.9629    0.0000 C   0  0  0  0  0  0  0  0  0  0  0  0
   -6.1492    7.0966    0.0000 C   0  0  0  0  0  0  0  0  0  0  0  0
   -5.6586    8.5141    0.0000 C   0  0  0  0  0  0  0  0  0  0  0  0
   -7.6221    6.8127    0.0000 C   0  0  0  0  0  0  0  0  0  0  0  0
   -6.2020    4.8773    0.0000 C   0  0  0  0  0  0  0  0  0  0  0  0
   -7.3811    5.8046    0.0000 O   0  0  0  0  0  0  0  0  0  0  0  0
   -7.0130    3.6154    0.0000 N   0  0  0  0  0  0  0  0  0  0  0  0
   -8.3462    4.3028    0.0000 C   0  0  0  0  0  0  0  0  0  0  0  0
   -7.5705    2.2229    0.0000 C   0  0  0  0  0  0  0  0  0  0  0  0
   -9.0097    2.6455    0.0000 C   0  0  0  0  0  0  0  0  0  0  0  0
   -9.3634    4.1032    0.0000 C   0  0  0  0  0  0  0  0  0  0  0  0
  -10.8026    4.5258    0.0000 C   0  0  0  0  0  0  0  0  0  0  0  0
   -8.2778    5.1383    0.0000 C   0  0  0  0  0  0  0  0  0  0  0  0
   -7.8544    0.7500    0.0000 C   0  0  0  0  0  0  0  0  0  0  0  0
   -9.3476    0.8926    0.0000 O   0  0  0  0  0  0  0  0  0  0  0  0
   -7.8544   -0.7500    0.0000 N   0  0  0  0  0  0  0  0  0  0  0  0
   -7.5705   -2.2229    0.0000 C   0  0  0  0  0  0  0  0  0  0  0  0
   -9.0097   -2.6455    0.0000 C   0  0  0  0  0  0  0  0  0  0  0  0
   -7.0130   -3.6154    0.0000 C   0  0  0  0  0  0  0  0  0  0  0  0
   -8.3462   -4.3028    0.0000 O   0  0  0  0  0  0  0  0  0  0  0  0
   -6.2020   -4.8773    0.0000 N   0  0  0  0  0  0  0  0  0  0  0  0
   -5.1669   -5.9629    0.0000 C   0  0  0  0  0  0  0  0  0  0  0  0
   -6.1492   -7.0966    0.0000 C   0  0  0  0  0  0  0  0  0  0  0  0
   -3.9450   -6.8330    0.0000 C   0  0  0  0  0  0  0  0  0  0  0  0
   -4.6950   -8.1320    0.0000 O   0  0  0  0  0  0  0  0  0  0  0  0
   -2.5806   -7.4561    0.0000 N   0  0  0  0  0  0  0  0  0  0  0  0
   -3.0712   -8.8736    0.0000 C   0  0  0  0  0  0  0  0  0  0  0  0
   -1.1229   -7.8098    0.0000 C   0  0  0  0  0  0  0  0  0  0  0  0
   -1.3363   -9.2945    0.0000 C   0  0  0  0  0  0  0  0  0  0  0  0
   -2.7289   -9.8520    0.0000 C   0  0  0  0  0  0  0  0  0  0  0  0
   -2.9424  -11.3367    0.0000 C   0  0  0  0  0  0  0  0  0  0  0  0
   -3.9080   -8.9248    0.0000 C   0  0  0  0  0  0  0  0  0  0  0  0
    0.3754   -7.8811    0.0000 C   0  0  0  0  0  0  0  0  0  0  0  0
    0.4468   -9.3794    0.0000 O   0  0  0  0  0  0  0  0  0  0  0  0
    1.8602   -7.6677    0.0000 N   0  0  0  0  0  0  0  0  0  0  0  0
    2.2138   -9.1254    0.0000 C   0  0  0  0  0  0  0  0  0  0  0  0
    3.2777   -7.1771    0.0000 C   0  0  0  0  0  0  0  0  0  0  0  0
    3.9008   -8.5415    0.0000 C   0  0  0  0  0  0  0  0  0  0  0  0
    3.0307   -9.7634    0.0000 C   0  0  0  0  0  0  0  0  0  0  0  0
    3.6538  -11.1278    0.0000 C   0  0  0  0  0  0  0  0  0  0  0  0
    1.5375   -9.6208    0.0000 C   0  0  0  0  0  0  0  0  0  0  0  0
    4.5767   -6.4271    0.0000 C   0  0  0  0  0  0  0  0  0  0  0  0
    5.4468   -7.6489    0.0000 O   0  0  0  0  0  0  0  0  0  0  0  0
    5.7103   -5.4448    0.0000 N   0  0  0  0  0  0  0  0  0  0  0  0
    6.7959   -6.4799    0.0000 C   0  0  0  0  0  0  0  0  0  0  0  0
    6.6376   -4.2657    0.0000 C   0  0  0  0  0  0  0  0  0  0  0  0
    7.8994   -5.0767    0.0000 C   0  0  0  0  0  0  0  0  0  0  0  0
    7.8281   -6.5750    0.0000 C   0  0  0  0  0  0  0  0  0  0  0  0
    9.2327   -4.3893    0.0000 C   0  0  0  0  0  0  0  0  0  0  0  0
    7.3249   -2.9324    0.0000 C   0  0  0  0  0  0  0  0  0  0  0  0
    8.7175   -3.4899    0.0000 O   0  0  0  0  0  0  0  0  0  0  0  0
    7.7475   -1.4932    0.0000 N   0  0  0  0  0  0  0  0  0  0  0  0
    9.2204   -1.7771    0.0000 C   0  0  0  0  0  0  0  0  0  0  0  0
  1  2  1  0
  2  3  2  0
  3  4  1  0
  4  5  1  0
  5  6  1  6
  5  7  1  0
  7  8  1  6
  7  9  1  0
  9 10  1  6
 10 11  2  0
 10 12  1  0
 12 13  1  0
 13 14  1  6
 14 15  1  0
 13 16  1  0
 16 17  2  0
 16 18  1  0
 18 19  1  0
 18 20  1  0
 20 21  1  0
 21 22  2  0
 21 23  1  0
 23 24  1  0
 23 25  1  0
 25 26  1  6
 26 27  1  0
 27 28  1  0
 27 29  1  0
 25 30  1  0
 30 31  2  0
 30 32  1  0
 32 33  1  0
 33 34  1  6
 34 35  1  0
 34 36  1  0
 33 37  1  0
 37 38  2  0
 37 39  1  0
 39 40  1  0
 39 41  1  0
 41 42  1  6
 42 43  1  0
 43 44  1  0
 43 45  1  0
 41 46  1  0
 46 47  2  0
 46 48  1  0
 48 49  1  0
 49 50  1  6
 49 51  1  0
 51 52  2  0
 51 53  1  0
 53 54  1  0
 54 55  1  1
 54 56  1  0
 56 57  2  0
 56 58  1  0
 58 59  1  0
 58 60  1  0
 60 61  1  6
 61 62  1  0
 62 63  1  0
 62 64  1  0
 60 65  1  0
 65 66  2  0
 65 67  1  0
 67 68  1  0
 67 69  1  0
 69 70  1  6
 70 71  1  0
 71 72  1  0
 71 73  1  0
 69 74  1  0
 74 75  2  0
 74 76  1  0
 76 77  1  0
 76 78  1  0
 78 79  1  6
 79 80  1  0
 79 81  1  0
 78 82  1  0
 82 83  2  0
 82 84  1  0
 84 85  1  0
 84  9  1  0
M  END
>  <assay_description>  (13) 
Inhibition of ABCC2 (unknown origin)

>  <molecule_pref_name>  (13) 
CYCLOSPORINE

>  <canonical_smiles>  (13) 
C/C=C/C[C@@H](C)[C@@H](O)[C@H]1C(=O)N[C@@H](CC)C(=O)N(C)CC(=O)N(C)[C@@H](CC(C)C)C(=O)N[C@@H](C(C)C)C(=O)N(C)[C@@H](CC(C)C)C(=O)N[C@@H](C)C(=O)N[C@H](C)C(=O)N(C)[C@@H](CC(C)C)C(=O)N(C)[C@@H](CC(C)C)C(=O)N(C)[C@@H](C(C)C)C(=O)N1C

>  <pchembl_value>  (13) 
4.70

>  <standard_type>  (13) 
IC50

>  <standard_relation>  (13) 
=

>  <standard_value>  (13) 
20000.0

>  <standard_units>  (13) 
nM

>  <target_pref_name>  (13) 
Canalicular multispecific organic anion transporter 1

>  <target_organism>  (13) 
Homo sapiens

$$$$
CHEMBL160
     RDKit          2D

 85 85  0  0  0  0  0  0  0  0999 V2000
   12.3901   -5.1962    0.0000 C   0  0  0  0  0  0  0  0  0  0  0  0
   11.6401   -3.8971    0.0000 C   0  0  0  0  0  0  0  0  0  0  0  0
   10.1401   -3.8971    0.0000 C   0  0  0  0  0  0  0  0  0  0  0  0
    9.3901   -2.5981    0.0000 C   0  0  0  0  0  0  0  0  0  0  0  0
   10.1401   -1.2990    0.0000 C   0  0  0  0  0  0  0  0  0  0  0  0
   11.6401   -1.2990    0.0000 C   0  0  0  0  0  0  0  0  0  0  0  0
    9.3901    0.0000    0.0000 C   0  0  0  0  0  0  0  0  0  0  0  0
   10.1401    1.2990    0.0000 O   0  0  0  0  0  0  0  0  0  0  0  0
    7.8901    0.0000    0.0000 C   0  0  0  0  0  0  0  0  0  0  0  0
    7.7475    1.4932    0.0000 C   0  0  0  0  0  0  0  0  0  0  0  0
    9.2204    1.7771    0.0000 O   0  0  0  0  0  0  0  0  0  0  0  0
    7.3249    2.9324    0.0000 N   0  0  0  0  0  0  0  0  0  0  0  0
    6.6376    4.2657    0.0000 C   0  0  0  0  0  0  0  0  0  0  0  0
    7.8994    5.0767    0.0000 C   0  0  0  0  0  0  0  0  0  0  0  0
    9.2327    4.3893    0.0000 C   0  0  0  0  0  0  0  0  0  0  0  0
    5.7103    5.4448    0.0000 C   0  0  0  0  0  0  0  0  0  0  0  0
    6.7959    6.4799    0.0000 O   0  0  0  0  0  0  0  0  0  0  0  0
    4.5767    6.4271    0.0000 N   0  0  0  0  0  0  0  0  0  0  0  0
    5.4468    7.6489    0.0000 C   0  0  0  0  0  0  0  0  0  0  0  0
    3.2777    7.1771    0.0000 C   0  0  0  0  0  0  0  0  0  0  0  0
    1.8602    7.6677    0.0000 C   0  0  0  0  0  0  0  0  0  0  0  0
    2.2138    9.1254    0.0000 O   0  0  0  0  0  0  0  0  0  0  0  0
    0.3754    7.8811    0.0000 N   0  0  0  0  0  0  0  0  0  0  0  0
    0.4468    9.3794    0.0000 C   0  0  0  0  0  0  0  0  0  0  0  0
   -1.1229    7.8098    0.0000 C   0  0  0  0  0  0  0  0  0  0  0  0
   -1.3363    9.2945    0.0000 C   0  0  0  0  0  0  0  0  0  0  0  0
   -0.1573   10.2217    0.0000 C   0  0  0  0  0  0  0  0  0  0  0  0
   -0.3707   11.7065    0.0000 C   0  0  0  0  0  0  0  0  0  0  0  0
    1.2353    9.6642    0.0000 C   0  0  0  0  0  0  0  0  0  0  0  0
   -2.5806    7.4561    0.0000 C   0  0  0  0  0  0  0  0  0  0  0  0
   -3.0712    8.8736    0.0000 O   0  0  0  0  0  0  0  0  0  0  0  0
   -3.9450    6.8330    0.0000 N   0  0  0  0  0  0  0  0  0  0  0  0
   -5.1669    5.9629    0.0000 C   0  0  0  0  0  0  0  0  0  0  0  0
   -6.1492    7.0966    0.0000 C   0  0  0  0  0  0  0  0  0  0  0  0
   -5.6586    8.5141    0.0000 C   0  0  0  0  0  0  0  0  0  0  0  0
   -7.6221    6.8127    0.0000 C   0  0  0  0  0  0  0  0  0  0  0  0
   -6.2020    4.8773    0.0000 C   0  0  0  0  0  0  0  0  0  0  0  0
   -7.3811    5.8046    0.0000 O   0  0  0  0  0  0  0  0  0  0  0  0
   -7.0130    3.6154    0.0000 N   0  0  0  0  0  0  0  0  0  0  0  0
   -8.3462    4.3028    0.0000 C   0  0  0  0  0  0  0  0  0  0  0  0
   -7.5705    2.2229    0.0000 C   0  0  0  0  0  0  0  0  0  0  0  0
   -9.0097    2.6455    0.0000 C   0  0  0  0  0  0  0  0  0  0  0  0
   -9.3634    4.1032    0.0000 C   0  0  0  0  0  0  0  0  0  0  0  0
  -10.8026    4.5258    0.0000 C   0  0  0  0  0  0  0  0  0  0  0  0
   -8.2778    5.1383    0.0000 C   0  0  0  0  0  0  0  0  0  0  0  0
   -7.8544    0.7500    0.0000 C   0  0  0  0  0  0  0  0  0  0  0  0
   -9.3476    0.8926    0.0000 O   0  0  0  0  0  0  0  0  0  0  0  0
   -7.8544   -0.7500    0.0000 N   0  0  0  0  0  0  0  0  0  0  0  0
   -7.5705   -2.2229    0.0000 C   0  0  0  0  0  0  0  0  0  0  0  0
   -9.0097   -2.6455    0.0000 C   0  0  0  0  0  0  0  0  0  0  0  0
   -7.0130   -3.6154    0.0000 C   0  0  0  0  0  0  0  0  0  0  0  0
   -8.3462   -4.3028    0.0000 O   0  0  0  0  0  0  0  0  0  0  0  0
   -6.2020   -4.8773    0.0000 N   0  0  0  0  0  0  0  0  0  0  0  0
   -5.1669   -5.9629    0.0000 C   0  0  0  0  0  0  0  0  0  0  0  0
   -6.1492   -7.0966    0.0000 C   0  0  0  0  0  0  0  0  0  0  0  0
   -3.9450   -6.8330    0.0000 C   0  0  0  0  0  0  0  0  0  0  0  0
   -4.6950   -8.1320    0.0000 O   0  0  0  0  0  0  0  0  0  0  0  0
   -2.5806   -7.4561    0.0000 N   0  0  0  0  0  0  0  0  0  0  0  0
   -3.0712   -8.8736    0.0000 C   0  0  0  0  0  0  0  0  0  0  0  0
   -1.1229   -7.8098    0.0000 C   0  0  0  0  0  0  0  0  0  0  0  0
   -1.3363   -9.2945    0.0000 C   0  0  0  0  0  0  0  0  0  0  0  0
   -2.7289   -9.8520    0.0000 C   0  0  0  0  0  0  0  0  0  0  0  0
   -2.9424  -11.3367    0.0000 C   0  0  0  0  0  0  0  0  0  0  0  0
   -3.9080   -8.9248    0.0000 C   0  0  0  0  0  0  0  0  0  0  0  0
    0.3754   -7.8811    0.0000 C   0  0  0  0  0  0  0  0  0  0  0  0
    0.4468   -9.3794    0.0000 O   0  0  0  0  0  0  0  0  0  0  0  0
    1.8602   -7.6677    0.0000 N   0  0  0  0  0  0  0  0  0  0  0  0
    2.2138   -9.1254    0.0000 C   0  0  0  0  0  0  0  0  0  0  0  0
    3.2777   -7.1771    0.0000 C   0  0  0  0  0  0  0  0  0  0  0  0
    3.9008   -8.5415    0.0000 C   0  0  0  0  0  0  0  0  0  0  0  0
    3.0307   -9.7634    0.0000 C   0  0  0  0  0  0  0  0  0  0  0  0
    3.6538  -11.1278    0.0000 C   0  0  0  0  0  0  0  0  0  0  0  0
    1.5375   -9.6208    0.0000 C   0  0  0  0  0  0  0  0  0  0  0  0
    4.5767   -6.4271    0.0000 C   0  0  0  0  0  0  0  0  0  0  0  0
    5.4468   -7.6489    0.0000 O   0  0  0  0  0  0  0  0  0  0  0  0
    5.7103   -5.4448    0.0000 N   0  0  0  0  0  0  0  0  0  0  0  0
    6.7959   -6.4799    0.0000 C   0  0  0  0  0  0  0  0  0  0  0  0
    6.6376   -4.2657    0.0000 C   0  0  0  0  0  0  0  0  0  0  0  0
    7.8994   -5.0767    0.0000 C   0  0  0  0  0  0  0  0  0  0  0  0
    7.8281   -6.5750    0.0000 C   0  0  0  0  0  0  0  0  0  0  0  0
    9.2327   -4.3893    0.0000 C   0  0  0  0  0  0  0  0  0  0  0  0
    7.3249   -2.9324    0.0000 C   0  0  0  0  0  0  0  0  0  0  0  0
    8.7175   -3.4899    0.0000 O   0  0  0  0  0  0  0  0  0  0  0  0
    7.7475   -1.4932    0.0000 N   0  0  0  0  0  0  0  0  0  0  0  0
    9.2204   -1.7771    0.0000 C   0  0  0  0  0  0  0  0  0  0  0  0
  1  2  1  0
  2  3  2  0
  3  4  1  0
  4  5  1  0
  5  6  1  6
  5  7  1  0
  7  8  1  6
  7  9  1  0
  9 10  1  6
 10 11  2  0
 10 12  1  0
 12 13  1  0
 13 14  1  6
 14 15  1  0
 13 16  1  0
 16 17  2  0
 16 18  1  0
 18 19  1  0
 18 20  1  0
 20 21  1  0
 21 22  2  0
 21 23  1  0
 23 24  1  0
 23 25  1  0
 25 26  1  6
 26 27  1  0
 27 28  1  0
 27 29  1  0
 25 30  1  0
 30 31  2  0
 30 32  1  0
 32 33  1  0
 33 34  1  6
 34 35  1  0
 34 36  1  0
 33 37  1  0
 37 38  2  0
 37 39  1  0
 39 40  1  0
 39 41  1  0
 41 42  1  6
 42 43  1  0
 43 44  1  0
 43 45  1  0
 41 46  1  0
 46 47  2  0
 46 48  1  0
 48 49  1  0
 49 50  1  6
 49 51  1  0
 51 52  2  0
 51 53  1  0
 53 54  1  0
 54 55  1  1
 54 56  1  0
 56 57  2  0
 56 58  1  0
 58 59  1  0
 58 60  1  0
 60 61  1  6
 61 62  1  0
 62 63  1  0
 62 64  1  0
 60 65  1  0
 65 66  2  0
 65 67  1  0
 67 68  1  0
 67 69  1  0
 69 70  1  6
 70 71  1  0
 71 72  1  0
 71 73  1  0
 69 74  1  0
 74 75  2  0
 74 76  1  0
 76 77  1  0
 76 78  1  0
 78 79  1  6
 79 80  1  0
 79 81  1  0
 78 82  1  0
 82 83  2  0
 82 84  1  0
 84 85  1  0
 84  9  1  0
M  END
>  <assay_description>  (14) 
Inhibition of ABCC2 (unknown origin) expressed in MDCK2 cells assessed as inhibition of calcein-AM efflux measured after 30 mins in presence of ABCB1 inhibitor GF120918 and ABCC1 inhibitor MK-571 by flow cytometry

>  <molecule_pref_name>  (14) 
CYCLOSPORINE

>  <canonical_smiles>  (14) 
C/C=C/C[C@@H](C)[C@@H](O)[C@H]1C(=O)N[C@@H](CC)C(=O)N(C)CC(=O)N(C)[C@@H](CC(C)C)C(=O)N[C@@H](C(C)C)C(=O)N(C)[C@@H](CC(C)C)C(=O)N[C@@H](C)C(=O)N[C@H](C)C(=O)N(C)[C@@H](CC(C)C)C(=O)N(C)[C@@H](CC(C)C)C(=O)N(C)[C@@H](C(C)C)C(=O)N1C

>  <pchembl_value>  (14) 
4.59

>  <standard_type>  (14) 
IC50

>  <standard_relation>  (14) 
=

>  <standard_value>  (14) 
25600.0

>  <standard_units>  (14) 
nM

>  <target_pref_name>  (14) 
Canalicular multispecific organic anion transporter 1

>  <target_organism>  (14) 
Homo sapiens

$$$$
CHEMBL3928271
     RDKit          2D

 30 34  0  0  0  0  0  0  0  0999 V2000
   -2.6401   -3.1891    0.0000 O   0  0  0  0  0  0  0  0  0  0  0  0
   -1.2135   -2.7256    0.0000 C   0  0  0  0  0  0  0  0  0  0  0  0
   -0.0000   -3.6073    0.0000 C   0  0  0  0  0  0  0  0  0  0  0  0
   -0.0000   -5.1073    0.0000 C   0  0  0  0  0  0  0  0  0  0  0  0
    1.2990   -5.8573    0.0000 C   0  0  0  0  0  0  0  0  0  0  0  0
    2.6694   -5.2472    0.0000 C   0  0  0  0  0  0  0  0  0  0  0  0
    3.6731   -6.3619    0.0000 N   0  0  0  0  0  0  0  0  0  0  0  0
    5.1648   -6.2051    0.0000 C   0  0  0  0  0  0  0  0  0  0  0  0
    5.7749   -4.8348    0.0000 C   0  0  0  0  0  0  0  0  0  0  0  0
    7.2667   -4.6780    0.0000 C   0  0  0  0  0  0  0  0  0  0  0  0
    7.8768   -3.3077    0.0000 C   0  0  0  0  0  0  0  0  0  0  0  0
    6.9951   -2.0942    0.0000 C   0  0  0  0  0  0  0  0  0  0  0  0
    5.5034   -2.2510    0.0000 C   0  0  0  0  0  0  0  0  0  0  0  0
    4.8933   -3.6213    0.0000 C   0  0  0  0  0  0  0  0  0  0  0  0
    2.9231   -7.6610    0.0000 C   0  0  0  0  0  0  0  0  0  0  0  0
    3.3866   -9.0875    0.0000 C   0  0  0  0  0  0  0  0  0  0  0  0
    2.3829  -10.2023    0.0000 C   0  0  0  0  0  0  0  0  0  0  0  0
    0.9157   -9.8904    0.0000 C   0  0  0  0  0  0  0  0  0  0  0  0
   -0.0880  -11.0051    0.0000 Br  0  0  0  0  0  0  0  0  0  0  0  0
    0.4521   -8.4638    0.0000 C   0  0  0  0  0  0  0  0  0  0  0  0
    1.4558   -7.3491    0.0000 C   0  0  0  0  0  0  0  0  0  0  0  0
    1.2135   -2.7256    0.0000 O   0  0  0  0  0  0  0  0  0  0  0  0
    0.7500   -1.2990    0.0000 C   0  0  0  0  0  0  0  0  0  0  0  0
    1.5000    0.0000    0.0000 C   0  0  0  0  0  0  0  0  0  0  0  0
    0.7500    1.2990    0.0000 C   0  0  0  0  0  0  0  0  0  0  0  0
    1.5000    2.5981    0.0000 O   0  0  0  0  0  0  0  0  0  0  0  0
   -0.7500    1.2990    0.0000 C   0  0  0  0  0  0  0  0  0  0  0  0
   -1.5000    0.0000    0.0000 C   0  0  0  0  0  0  0  0  0  0  0  0
   -3.0000    0.0000    0.0000 O   0  0  0  0  0  0  0  0  0  0  0  0
   -0.7500   -1.2990    0.0000 C   0  0  0  0  0  0  0  0  0  0  0  0
  1  2  2  0
  2  3  1  0
  3  4  2  0
  4  5  1  0
  5  6  2  0
  6  7  1  0
  7  8  1  0
  8  9  1  0
  9 10  1  0
 10 11  1  0
 11 12  1  0
 12 13  1  0
 13 14  1  0
  7 15  1  0
 15 16  2  0
 16 17  1  0
 17 18  2  0
 18 19  1  0
 18 20  1  0
 20 21  2  0
  3 22  1  0
 22 23  1  0
 23 24  2  0
 24 25  1  0
 25 26  1  0
 25 27  2  0
 27 28  1  0
 28 29  1  0
 28 30  2  0
 30  2  1  0
 21  5  1  0
 30 23  1  0
 14  9  1  0
 21 15  1  0
M  END
>  <assay_description>  (15) 
Inhibition of ABCC2 (unknown origin) expressed in MDCK2 cells assessed as inhibition of calcein-AM efflux measured after 30 mins in presence of ABCB1 inhibitor GF120918 and ABCC1 inhibitor MK-571 by flow cytometry

>  <molecule_pref_name>  (15) 
None

>  <canonical_smiles>  (15) 
O=C1/C(=C/c2cn(CC3CCCCC3)c3ccc(Br)cc23)Oc2cc(O)cc(O)c21

>  <pchembl_value>  (15) 
4.80

>  <standard_type>  (15) 
IC50

>  <standard_relation>  (15) 
=

>  <standard_value>  (15) 
15800.0

>  <standard_units>  (15) 
nM

>  <target_pref_name>  (15) 
Canalicular multispecific organic anion transporter 1

>  <target_organism>  (15) 
Homo sapiens

$$$$
CHEMBL3948408
     RDKit          2D

 27 30  0  0  0  0  0  0  0  0999 V2000
   -4.6904   -6.5871    0.0000 C   0  0  0  0  0  0  0  0  0  0  0  0
   -4.3786   -5.1199    0.0000 C   0  0  0  0  0  0  0  0  0  0  0  0
   -2.9520   -4.6564    0.0000 C   0  0  0  0  0  0  0  0  0  0  0  0
   -2.6401   -3.1891    0.0000 C   0  0  0  0  0  0  0  0  0  0  0  0
   -1.2135   -2.7256    0.0000 N   0  0  0  0  0  0  0  0  0  0  0  0
   -0.0000   -3.6073    0.0000 C   0  0  0  0  0  0  0  0  0  0  0  0
    1.2135   -2.7256    0.0000 C   0  0  0  0  0  0  0  0  0  0  0  0
    2.6401   -3.1891    0.0000 C   0  0  0  0  0  0  0  0  0  0  0  0
    2.9520   -4.6564    0.0000 C   0  0  0  0  0  0  0  0  0  0  0  0
    1.9483   -5.7711    0.0000 O   0  0  0  0  0  0  0  0  0  0  0  0
    2.6983   -7.0701    0.0000 C   0  0  0  0  0  0  0  0  0  0  0  0
    2.2348   -8.4967    0.0000 C   0  0  0  0  0  0  0  0  0  0  0  0
    3.2385   -9.6114    0.0000 C   0  0  0  0  0  0  0  0  0  0  0  0
    2.7749  -11.0380    0.0000 O   0  0  0  0  0  0  0  0  0  0  0  0
    4.7057   -9.2996    0.0000 C   0  0  0  0  0  0  0  0  0  0  0  0
    5.1692   -7.8730    0.0000 C   0  0  0  0  0  0  0  0  0  0  0  0
    6.6364   -7.5611    0.0000 O   0  0  0  0  0  0  0  0  0  0  0  0
    4.1655   -6.7583    0.0000 C   0  0  0  0  0  0  0  0  0  0  0  0
    4.3223   -5.2665    0.0000 C   0  0  0  0  0  0  0  0  0  0  0  0
    5.6213   -4.5165    0.0000 O   0  0  0  0  0  0  0  0  0  0  0  0
    0.7500   -1.2990    0.0000 C   0  0  0  0  0  0  0  0  0  0  0  0
    1.5000    0.0000    0.0000 C   0  0  0  0  0  0  0  0  0  0  0  0
    0.7500    1.2990    0.0000 C   0  0  0  0  0  0  0  0  0  0  0  0
    1.5000    2.5981    0.0000 Br  0  0  0  0  0  0  0  0  0  0  0  0
   -0.7500    1.2990    0.0000 C   0  0  0  0  0  0  0  0  0  0  0  0
   -1.5000    0.0000    0.0000 C   0  0  0  0  0  0  0  0  0  0  0  0
   -0.7500   -1.2990    0.0000 C   0  0  0  0  0  0  0  0  0  0  0  0
  1  2  1  0
  2  3  1  0
  3  4  1  0
  4  5  1  0
  5  6  1  0
  6  7  2  0
  7  8  1  0
  8  9  2  0
  9 10  1  0
 10 11  1  0
 11 12  2  0
 12 13  1  0
 13 14  1  0
 13 15  2  0
 15 16  1  0
 16 17  1  0
 16 18  2  0
 18 19  1  0
 19 20  2  0
  7 21  1  0
 21 22  2  0
 22 23  1  0
 23 24  1  0
 23 25  2  0
 25 26  1  0
 26 27  2  0
 27  5  1  0
 19  9  1  0
 27 21  1  0
 18 11  1  0
M  END
>  <assay_description>  (16) 
Inhibition of ABCC2 (unknown origin) expressed in MDCK2 cells assessed as inhibition of calcein-AM efflux measured after 30 mins in presence of ABCB1 inhibitor GF120918 and ABCC1 inhibitor MK-571 by flow cytometry

>  <molecule_pref_name>  (16) 
None

>  <canonical_smiles>  (16) 
CCCCn1cc(/C=C2\Oc3cc(O)cc(O)c3C2=O)c2cc(Br)ccc21

>  <pchembl_value>  (16) 
4.81

>  <standard_type>  (16) 
IC50

>  <standard_relation>  (16) 
=

>  <standard_value>  (16) 
15400.0

>  <standard_units>  (16) 
nM

>  <target_pref_name>  (16) 
Canalicular multispecific organic anion transporter 1

>  <target_organism>  (16) 
Homo sapiens

$$$$
CHEMBL3914655
     RDKit          2D

 25 28  0  0  0  0  0  0  0  0999 V2000
   -2.9520   -4.6564    0.0000 C   0  0  0  0  0  0  0  0  0  0  0  0
   -2.6401   -3.1891    0.0000 C   0  0  0  0  0  0  0  0  0  0  0  0
   -1.2135   -2.7256    0.0000 N   0  0  0  0  0  0  0  0  0  0  0  0
   -0.0000   -3.6073    0.0000 C   0  0  0  0  0  0  0  0  0  0  0  0
    1.2135   -2.7256    0.0000 C   0  0  0  0  0  0  0  0  0  0  0  0
    2.6401   -3.1891    0.0000 C   0  0  0  0  0  0  0  0  0  0  0  0
    2.9520   -4.6564    0.0000 C   0  0  0  0  0  0  0  0  0  0  0  0
    1.9483   -5.7711    0.0000 O   0  0  0  0  0  0  0  0  0  0  0  0
    2.6983   -7.0701    0.0000 C   0  0  0  0  0  0  0  0  0  0  0  0
    2.2348   -8.4967    0.0000 C   0  0  0  0  0  0  0  0  0  0  0  0
    3.2385   -9.6114    0.0000 C   0  0  0  0  0  0  0  0  0  0  0  0
    2.7749  -11.0380    0.0000 O   0  0  0  0  0  0  0  0  0  0  0  0
    4.7057   -9.2996    0.0000 C   0  0  0  0  0  0  0  0  0  0  0  0
    5.1692   -7.8730    0.0000 C   0  0  0  0  0  0  0  0  0  0  0  0
    6.6364   -7.5611    0.0000 O   0  0  0  0  0  0  0  0  0  0  0  0
    4.1655   -6.7583    0.0000 C   0  0  0  0  0  0  0  0  0  0  0  0
    4.3223   -5.2665    0.0000 C   0  0  0  0  0  0  0  0  0  0  0  0
    5.6213   -4.5165    0.0000 O   0  0  0  0  0  0  0  0  0  0  0  0
    0.7500   -1.2990    0.0000 C   0  0  0  0  0  0  0  0  0  0  0  0
    1.5000    0.0000    0.0000 C   0  0  0  0  0  0  0  0  0  0  0  0
    0.7500    1.2990    0.0000 C   0  0  0  0  0  0  0  0  0  0  0  0
    1.5000    2.5981    0.0000 Br  0  0  0  0  0  0  0  0  0  0  0  0
   -0.7500    1.2990    0.0000 C   0  0  0  0  0  0  0  0  0  0  0  0
   -1.5000    0.0000    0.0000 C   0  0  0  0  0  0  0  0  0  0  0  0
   -0.7500   -1.2990    0.0000 C   0  0  0  0  0  0  0  0  0  0  0  0
  1  2  1  0
  2  3  1  0
  3  4  1  0
  4  5  2  0
  5  6  1  0
  6  7  2  0
  7  8  1  0
  8  9  1  0
  9 10  2  0
 10 11  1  0
 11 12  1  0
 11 13  2  0
 13 14  1  0
 14 15  1  0
 14 16  2  0
 16 17  1  0
 17 18  2  0
  5 19  1  0
 19 20  2  0
 20 21  1  0
 21 22  1  0
 21 23  2  0
 23 24  1  0
 24 25  2  0
 25  3  1  0
 17  7  1  0
 25 19  1  0
 16  9  1  0
M  END
>  <assay_description>  (17) 
Inhibition of ABCC2 (unknown origin) expressed in MDCK2 cells assessed as inhibition of calcein-AM efflux measured after 30 mins in presence of ABCB1 inhibitor GF120918 and ABCC1 inhibitor MK-571 by flow cytometry

>  <molecule_pref_name>  (17) 
None

>  <canonical_smiles>  (17) 
CCn1cc(/C=C2\Oc3cc(O)cc(O)c3C2=O)c2cc(Br)ccc21

>  <pchembl_value>  (17) 
4.75

>  <standard_type>  (17) 
IC50

>  <standard_relation>  (17) 
=

>  <standard_value>  (17) 
17800.0

>  <standard_units>  (17) 
nM

>  <target_pref_name>  (17) 
Canalicular multispecific organic anion transporter 1

>  <target_organism>  (17) 
Homo sapiens

$$$$
CHEMBL3921707
     RDKit          2D

 24 27  0  0  0  0  0  0  0  0999 V2000
   -2.6401   -3.1891    0.0000 C   0  0  0  0  0  0  0  0  0  0  0  0
   -1.2135   -2.7256    0.0000 N   0  0  0  0  0  0  0  0  0  0  0  0
   -0.0000   -3.6073    0.0000 C   0  0  0  0  0  0  0  0  0  0  0  0
    1.2135   -2.7256    0.0000 C   0  0  0  0  0  0  0  0  0  0  0  0
    2.6401   -3.1891    0.0000 C   0  0  0  0  0  0  0  0  0  0  0  0
    2.9520   -4.6564    0.0000 C   0  0  0  0  0  0  0  0  0  0  0  0
    1.9483   -5.7711    0.0000 O   0  0  0  0  0  0  0  0  0  0  0  0
    2.6983   -7.0701    0.0000 C   0  0  0  0  0  0  0  0  0  0  0  0
    2.2348   -8.4967    0.0000 C   0  0  0  0  0  0  0  0  0  0  0  0
    3.2385   -9.6114    0.0000 C   0  0  0  0  0  0  0  0  0  0  0  0
    2.7749  -11.0380    0.0000 O   0  0  0  0  0  0  0  0  0  0  0  0
    4.7057   -9.2996    0.0000 C   0  0  0  0  0  0  0  0  0  0  0  0
    5.1692   -7.8730    0.0000 C   0  0  0  0  0  0  0  0  0  0  0  0
    6.6364   -7.5611    0.0000 O   0  0  0  0  0  0  0  0  0  0  0  0
    4.1655   -6.7583    0.0000 C   0  0  0  0  0  0  0  0  0  0  0  0
    4.3223   -5.2665    0.0000 C   0  0  0  0  0  0  0  0  0  0  0  0
    5.6213   -4.5165    0.0000 O   0  0  0  0  0  0  0  0  0  0  0  0
    0.7500   -1.2990    0.0000 C   0  0  0  0  0  0  0  0  0  0  0  0
    1.5000    0.0000    0.0000 C   0  0  0  0  0  0  0  0  0  0  0  0
    0.7500    1.2990    0.0000 C   0  0  0  0  0  0  0  0  0  0  0  0
    1.5000    2.5981    0.0000 Br  0  0  0  0  0  0  0  0  0  0  0  0
   -0.7500    1.2990    0.0000 C   0  0  0  0  0  0  0  0  0  0  0  0
   -1.5000    0.0000    0.0000 C   0  0  0  0  0  0  0  0  0  0  0  0
   -0.7500   -1.2990    0.0000 C   0  0  0  0  0  0  0  0  0  0  0  0
  1  2  1  0
  2  3  1  0
  3  4  2  0
  4  5  1  0
  5  6  2  0
  6  7  1  0
  7  8  1  0
  8  9  2  0
  9 10  1  0
 10 11  1  0
 10 12  2  0
 12 13  1  0
 13 14  1  0
 13 15  2  0
 15 16  1  0
 16 17  2  0
  4 18  1  0
 18 19  2  0
 19 20  1  0
 20 21  1  0
 20 22  2  0
 22 23  1  0
 23 24  2  0
 24  2  1  0
 16  6  1  0
 24 18  1  0
 15  8  1  0
M  END
>  <assay_description>  (18) 
Inhibition of ABCC2 (unknown origin) expressed in MDCK2 cells assessed as inhibition of calcein-AM efflux measured after 30 mins in presence of ABCB1 inhibitor GF120918 and ABCC1 inhibitor MK-571 by flow cytometry

>  <molecule_pref_name>  (18) 
None

>  <canonical_smiles>  (18) 
Cn1cc(/C=C2\Oc3cc(O)cc(O)c3C2=O)c2cc(Br)ccc21

>  <pchembl_value>  (18) 
5.35

>  <standard_type>  (18) 
IC50

>  <standard_relation>  (18) 
=

>  <standard_value>  (18) 
4500.0

>  <standard_units>  (18) 
nM

>  <target_pref_name>  (18) 
Canalicular multispecific organic anion transporter 1

>  <target_organism>  (18) 
Homo sapiens

$$$$
CHEMBL3964042
     RDKit          2D

 32 36  0  0  0  0  0  0  0  0999 V2000
    3.7500   -1.2990    0.0000 C   0  0  0  0  0  0  0  0  0  0  0  0
    3.0000    0.0000    0.0000 O   0  0  0  0  0  0  0  0  0  0  0  0
    1.5000    0.0000    0.0000 C   0  0  0  0  0  0  0  0  0  0  0  0
    0.7500   -1.2990    0.0000 C   0  0  0  0  0  0  0  0  0  0  0  0
   -0.7500   -1.2990    0.0000 C   0  0  0  0  0  0  0  0  0  0  0  0
   -1.5000    0.0000    0.0000 C   0  0  0  0  0  0  0  0  0  0  0  0
   -0.7500    1.2990    0.0000 C   0  0  0  0  0  0  0  0  0  0  0  0
    0.7500    1.2990    0.0000 C   0  0  0  0  0  0  0  0  0  0  0  0
   -1.7537    2.4138    0.0000 C   0  0  0  0  0  0  0  0  0  0  0  0
   -1.4418    3.8810    0.0000 C   0  0  0  0  0  0  0  0  0  0  0  0
   -2.5565    4.8847    0.0000 C   0  0  0  0  0  0  0  0  0  0  0  0
   -4.0238    4.5728    0.0000 O   0  0  0  0  0  0  0  0  0  0  0  0
   -4.7738    5.8718    0.0000 C   0  0  0  0  0  0  0  0  0  0  0  0
   -6.2410    6.1837    0.0000 C   0  0  0  0  0  0  0  0  0  0  0  0
   -6.7045    7.6103    0.0000 C   0  0  0  0  0  0  0  0  0  0  0  0
   -8.1717    7.9222    0.0000 O   0  0  0  0  0  0  0  0  0  0  0  0
   -5.7008    8.7250    0.0000 C   0  0  0  0  0  0  0  0  0  0  0  0
   -4.2336    8.4131    0.0000 C   0  0  0  0  0  0  0  0  0  0  0  0
   -3.2299    9.5279    0.0000 O   0  0  0  0  0  0  0  0  0  0  0  0
   -3.7701    6.9866    0.0000 C   0  0  0  0  0  0  0  0  0  0  0  0
   -2.3998    6.3765    0.0000 C   0  0  0  0  0  0  0  0  0  0  0  0
   -1.1007    7.1265    0.0000 O   0  0  0  0  0  0  0  0  0  0  0  0
   -3.1240    1.8037    0.0000 C   0  0  0  0  0  0  0  0  0  0  0  0
   -2.9672    0.3119    0.0000 N   0  0  0  0  0  0  0  0  0  0  0  0
   -4.0819   -0.6918    0.0000 C   0  0  0  0  0  0  0  0  0  0  0  0
   -5.5085   -0.2283    0.0000 C   0  0  0  0  0  0  0  0  0  0  0  0
   -5.8204    1.2389    0.0000 C   0  0  0  0  0  0  0  0  0  0  0  0
   -7.2470    1.7024    0.0000 C   0  0  0  0  0  0  0  0  0  0  0  0
   -8.3617    0.6987    0.0000 C   0  0  0  0  0  0  0  0  0  0  0  0
   -8.0498   -0.7685    0.0000 C   0  0  0  0  0  0  0  0  0  0  0  0
   -9.1645   -1.7722    0.0000 Br  0  0  0  0  0  0  0  0  0  0  0  0
   -6.6232   -1.2320    0.0000 C   0  0  0  0  0  0  0  0  0  0  0  0
  1  2  1  0
  2  3  1  0
  3  4  2  0
  4  5  1  0
  5  6  2  0
  6  7  1  0
  7  8  2  0
  7  9  1  0
  9 10  1  0
 10 11  2  0
 11 12  1  0
 12 13  1  0
 13 14  2  0
 14 15  1  0
 15 16  1  0
 15 17  2  0
 17 18  1  0
 18 19  1  0
 18 20  2  0
 20 21  1  0
 21 22  2  0
  9 23  2  0
 23 24  1  0
 24 25  1  0
 25 26  1  0
 26 27  2  0
 27 28  1  0
 28 29  2  0
 29 30  1  0
 30 31  1  0
 30 32  2  0
  8  3  1  0
 21 11  1  0
 32 26  1  0
 24  6  1  0
 20 13  1  0
M  END
>  <assay_description>  (19) 
Inhibition of ABCC2 (unknown origin) expressed in MDCK2 cells assessed as inhibition of calcein-AM efflux measured after 30 mins in presence of ABCB1 inhibitor GF120918 and ABCC1 inhibitor MK-571 by flow cytometry

>  <molecule_pref_name>  (19) 
None

>  <canonical_smiles>  (19) 
COc1ccc2c(c1)c(/C=C1\Oc3cc(O)cc(O)c3C1=O)cn2Cc1cccc(Br)c1

>  <pchembl_value>  (19) 
5.14

>  <standard_type>  (19) 
IC50

>  <standard_relation>  (19) 
=

>  <standard_value>  (19) 
7300.0

>  <standard_units>  (19) 
nM

>  <target_pref_name>  (19) 
Canalicular multispecific organic anion transporter 1

>  <target_organism>  (19) 
Homo sapiens

$$$$
CHEMBL3263915
     RDKit          2D

 28 31  0  0  0  0  0  0  0  0999 V2000
   -4.6904   -6.5871    0.0000 C   0  0  0  0  0  0  0  0  0  0  0  0
   -4.3786   -5.1199    0.0000 C   0  0  0  0  0  0  0  0  0  0  0  0
   -2.9520   -4.6564    0.0000 C   0  0  0  0  0  0  0  0  0  0  0  0
   -2.6401   -3.1891    0.0000 C   0  0  0  0  0  0  0  0  0  0  0  0
   -1.2135   -2.7256    0.0000 N   0  0  0  0  0  0  0  0  0  0  0  0
   -0.0000   -3.6073    0.0000 C   0  0  0  0  0  0  0  0  0  0  0  0
    1.2135   -2.7256    0.0000 C   0  0  0  0  0  0  0  0  0  0  0  0
    2.6401   -3.1891    0.0000 C   0  0  0  0  0  0  0  0  0  0  0  0
    2.9520   -4.6564    0.0000 C   0  0  0  0  0  0  0  0  0  0  0  0
    1.9483   -5.7711    0.0000 O   0  0  0  0  0  0  0  0  0  0  0  0
    2.6983   -7.0701    0.0000 C   0  0  0  0  0  0  0  0  0  0  0  0
    2.2348   -8.4967    0.0000 C   0  0  0  0  0  0  0  0  0  0  0  0
    3.2385   -9.6114    0.0000 C   0  0  0  0  0  0  0  0  0  0  0  0
    2.7749  -11.0380    0.0000 O   0  0  0  0  0  0  0  0  0  0  0  0
    4.7057   -9.2996    0.0000 C   0  0  0  0  0  0  0  0  0  0  0  0
    5.1692   -7.8730    0.0000 C   0  0  0  0  0  0  0  0  0  0  0  0
    6.6364   -7.5611    0.0000 O   0  0  0  0  0  0  0  0  0  0  0  0
    4.1655   -6.7583    0.0000 C   0  0  0  0  0  0  0  0  0  0  0  0
    4.3223   -5.2665    0.0000 C   0  0  0  0  0  0  0  0  0  0  0  0
    5.6213   -4.5165    0.0000 O   0  0  0  0  0  0  0  0  0  0  0  0
    0.7500   -1.2990    0.0000 C   0  0  0  0  0  0  0  0  0  0  0  0
    1.5000    0.0000    0.0000 C   0  0  0  0  0  0  0  0  0  0  0  0
    0.7500    1.2990    0.0000 C   0  0  0  0  0  0  0  0  0  0  0  0
   -0.7500    1.2990    0.0000 C   0  0  0  0  0  0  0  0  0  0  0  0
   -1.5000    0.0000    0.0000 C   0  0  0  0  0  0  0  0  0  0  0  0
   -3.0000    0.0000    0.0000 O   0  0  0  0  0  0  0  0  0  0  0  0
   -3.7500    1.2990    0.0000 C   0  0  0  0  0  0  0  0  0  0  0  0
   -0.7500   -1.2990    0.0000 C   0  0  0  0  0  0  0  0  0  0  0  0
  1  2  1  0
  2  3  1  0
  3  4  1  0
  4  5  1  0
  5  6  1  0
  6  7  2  0
  7  8  1  0
  8  9  2  0
  9 10  1  0
 10 11  1  0
 11 12  2  0
 12 13  1  0
 13 14  1  0
 13 15  2  0
 15 16  1  0
 16 17  1  0
 16 18  2  0
 18 19  1  0
 19 20  2  0
  7 21  1  0
 21 22  2  0
 22 23  1  0
 23 24  2  0
 24 25  1  0
 25 26  1  0
 26 27  1  0
 25 28  2  0
 28  5  1  0
 19  9  1  0
 28 21  1  0
 18 11  1  0
M  END
>  <assay_description>  (20) 
Inhibition of ABCC2 (unknown origin) expressed in MDCK2 cells assessed as inhibition of calcein-AM efflux measured after 30 mins in presence of ABCB1 inhibitor GF120918 and ABCC1 inhibitor MK-571 by flow cytometry

>  <molecule_pref_name>  (20) 
None

>  <canonical_smiles>  (20) 
CCCCn1cc(/C=C2\Oc3cc(O)cc(O)c3C2=O)c2cccc(OC)c21

>  <pchembl_value>  (20) 
5.20

>  <standard_type>  (20) 
IC50

>  <standard_relation>  (20) 
=

>  <standard_value>  (20) 
6300.0

>  <standard_units>  (20) 
nM

>  <target_pref_name>  (20) 
Canalicular multispecific organic anion transporter 1

>  <target_organism>  (20) 
Homo sapiens

$$$$
CHEMBL3974624
     RDKit          2D

 31 35  0  0  0  0  0  0  0  0999 V2000
    3.7500   -1.2990    0.0000 C   0  0  0  0  0  0  0  0  0  0  0  0
    3.0000    0.0000    0.0000 O   0  0  0  0  0  0  0  0  0  0  0  0
    1.5000    0.0000    0.0000 C   0  0  0  0  0  0  0  0  0  0  0  0
    0.7500   -1.2990    0.0000 C   0  0  0  0  0  0  0  0  0  0  0  0
   -0.7500   -1.2990    0.0000 C   0  0  0  0  0  0  0  0  0  0  0  0
   -1.5000    0.0000    0.0000 C   0  0  0  0  0  0  0  0  0  0  0  0
   -0.7500    1.2990    0.0000 C   0  0  0  0  0  0  0  0  0  0  0  0
    0.7500    1.2990    0.0000 C   0  0  0  0  0  0  0  0  0  0  0  0
   -1.7537    2.4138    0.0000 C   0  0  0  0  0  0  0  0  0  0  0  0
   -1.4418    3.8810    0.0000 C   0  0  0  0  0  0  0  0  0  0  0  0
   -2.5565    4.8847    0.0000 C   0  0  0  0  0  0  0  0  0  0  0  0
   -4.0238    4.5728    0.0000 O   0  0  0  0  0  0  0  0  0  0  0  0
   -4.7738    5.8718    0.0000 C   0  0  0  0  0  0  0  0  0  0  0  0
   -6.2410    6.1837    0.0000 C   0  0  0  0  0  0  0  0  0  0  0  0
   -6.7045    7.6103    0.0000 C   0  0  0  0  0  0  0  0  0  0  0  0
   -8.1717    7.9222    0.0000 O   0  0  0  0  0  0  0  0  0  0  0  0
   -5.7008    8.7250    0.0000 C   0  0  0  0  0  0  0  0  0  0  0  0
   -4.2336    8.4131    0.0000 C   0  0  0  0  0  0  0  0  0  0  0  0
   -3.2299    9.5279    0.0000 O   0  0  0  0  0  0  0  0  0  0  0  0
   -3.7701    6.9866    0.0000 C   0  0  0  0  0  0  0  0  0  0  0  0
   -2.3998    6.3765    0.0000 C   0  0  0  0  0  0  0  0  0  0  0  0
   -1.1007    7.1265    0.0000 O   0  0  0  0  0  0  0  0  0  0  0  0
   -3.1240    1.8037    0.0000 C   0  0  0  0  0  0  0  0  0  0  0  0
   -2.9672    0.3119    0.0000 N   0  0  0  0  0  0  0  0  0  0  0  0
   -4.0819   -0.6918    0.0000 C   0  0  0  0  0  0  0  0  0  0  0  0
   -5.5085   -0.2283    0.0000 C   0  0  0  0  0  0  0  0  0  0  0  0
   -5.8204    1.2389    0.0000 C   0  0  0  0  0  0  0  0  0  0  0  0
   -7.2470    1.7024    0.0000 C   0  0  0  0  0  0  0  0  0  0  0  0
   -8.3617    0.6987    0.0000 C   0  0  0  0  0  0  0  0  0  0  0  0
   -8.0498   -0.7685    0.0000 C   0  0  0  0  0  0  0  0  0  0  0  0
   -6.6232   -1.2320    0.0000 C   0  0  0  0  0  0  0  0  0  0  0  0
  1  2  1  0
  2  3  1  0
  3  4  2  0
  4  5  1  0
  5  6  2  0
  6  7  1  0
  7  8  2  0
  7  9  1  0
  9 10  1  0
 10 11  2  0
 11 12  1  0
 12 13  1  0
 13 14  2  0
 14 15  1  0
 15 16  1  0
 15 17  2  0
 17 18  1  0
 18 19  1  0
 18 20  2  0
 20 21  1  0
 21 22  2  0
  9 23  2  0
 23 24  1  0
 24 25  1  0
 25 26  1  0
 26 27  1  0
 27 28  1  0
 28 29  1  0
 29 30  1  0
 30 31  1  0
  8  3  1  0
 21 11  1  0
 31 26  1  0
 24  6  1  0
 20 13  1  0
M  END
>  <assay_description>  (21) 
Inhibition of ABCC2 (unknown origin) expressed in MDCK2 cells assessed as inhibition of calcein-AM efflux measured after 30 mins in presence of ABCB1 inhibitor GF120918 and ABCC1 inhibitor MK-571 by flow cytometry

>  <molecule_pref_name>  (21) 
None

>  <canonical_smiles>  (21) 
COc1ccc2c(c1)c(/C=C1\Oc3cc(O)cc(O)c3C1=O)cn2CC1CCCCC1

>  <pchembl_value>  (21) 
5.39

>  <standard_type>  (21) 
IC50

>  <standard_relation>  (21) 
=

>  <standard_value>  (21) 
4100.0

>  <standard_units>  (21) 
nM

>  <target_pref_name>  (21) 
Canalicular multispecific organic anion transporter 1

>  <target_organism>  (21) 
Homo sapiens

$$$$
CHEMBL3259861
     RDKit          2D

 28 31  0  0  0  0  0  0  0  0999 V2000
   -4.6904   -6.5871    0.0000 C   0  0  0  0  0  0  0  0  0  0  0  0
   -4.3786   -5.1199    0.0000 C   0  0  0  0  0  0  0  0  0  0  0  0
   -2.9520   -4.6564    0.0000 C   0  0  0  0  0  0  0  0  0  0  0  0
   -2.6401   -3.1891    0.0000 C   0  0  0  0  0  0  0  0  0  0  0  0
   -1.2135   -2.7256    0.0000 N   0  0  0  0  0  0  0  0  0  0  0  0
   -0.0000   -3.6073    0.0000 C   0  0  0  0  0  0  0  0  0  0  0  0
    1.2135   -2.7256    0.0000 C   0  0  0  0  0  0  0  0  0  0  0  0
    2.6401   -3.1891    0.0000 C   0  0  0  0  0  0  0  0  0  0  0  0
    2.9520   -4.6564    0.0000 C   0  0  0  0  0  0  0  0  0  0  0  0
    1.9483   -5.7711    0.0000 O   0  0  0  0  0  0  0  0  0  0  0  0
    2.6983   -7.0701    0.0000 C   0  0  0  0  0  0  0  0  0  0  0  0
    2.2348   -8.4967    0.0000 C   0  0  0  0  0  0  0  0  0  0  0  0
    3.2385   -9.6114    0.0000 C   0  0  0  0  0  0  0  0  0  0  0  0
    2.7749  -11.0380    0.0000 O   0  0  0  0  0  0  0  0  0  0  0  0
    4.7057   -9.2996    0.0000 C   0  0  0  0  0  0  0  0  0  0  0  0
    5.1692   -7.8730    0.0000 C   0  0  0  0  0  0  0  0  0  0  0  0
    6.6364   -7.5611    0.0000 O   0  0  0  0  0  0  0  0  0  0  0  0
    4.1655   -6.7583    0.0000 C   0  0  0  0  0  0  0  0  0  0  0  0
    4.3223   -5.2665    0.0000 C   0  0  0  0  0  0  0  0  0  0  0  0
    5.6213   -4.5165    0.0000 O   0  0  0  0  0  0  0  0  0  0  0  0
    0.7500   -1.2990    0.0000 C   0  0  0  0  0  0  0  0  0  0  0  0
    1.5000    0.0000    0.0000 C   0  0  0  0  0  0  0  0  0  0  0  0
    0.7500    1.2990    0.0000 C   0  0  0  0  0  0  0  0  0  0  0  0
    1.5000    2.5981    0.0000 O   0  0  0  0  0  0  0  0  0  0  0  0
    3.0000    2.5981    0.0000 C   0  0  0  0  0  0  0  0  0  0  0  0
   -0.7500    1.2990    0.0000 C   0  0  0  0  0  0  0  0  0  0  0  0
   -1.5000    0.0000    0.0000 C   0  0  0  0  0  0  0  0  0  0  0  0
   -0.7500   -1.2990    0.0000 C   0  0  0  0  0  0  0  0  0  0  0  0
  1  2  1  0
  2  3  1  0
  3  4  1  0
  4  5  1  0
  5  6  1  0
  6  7  2  0
  7  8  1  0
  8  9  2  0
  9 10  1  0
 10 11  1  0
 11 12  2  0
 12 13  1  0
 13 14  1  0
 13 15  2  0
 15 16  1  0
 16 17  1  0
 16 18  2  0
 18 19  1  0
 19 20  2  0
  7 21  1  0
 21 22  2  0
 22 23  1  0
 23 24  1  0
 24 25  1  0
 23 26  2  0
 26 27  1  0
 27 28  2  0
 28  5  1  0
 19  9  1  0
 28 21  1  0
 18 11  1  0
M  END
>  <assay_description>  (22) 
Inhibition of ABCC2 (unknown origin) expressed in MDCK2 cells assessed as inhibition of calcein-AM efflux measured after 30 mins in presence of ABCB1 inhibitor GF120918 and ABCC1 inhibitor MK-571 by flow cytometry

>  <molecule_pref_name>  (22) 
None

>  <canonical_smiles>  (22) 
CCCCn1cc(/C=C2\Oc3cc(O)cc(O)c3C2=O)c2cc(OC)ccc21

>  <pchembl_value>  (22) 
4.86

>  <standard_type>  (22) 
IC50

>  <standard_relation>  (22) 
=

>  <standard_value>  (22) 
13900.0

>  <standard_units>  (22) 
nM

>  <target_pref_name>  (22) 
Canalicular multispecific organic anion transporter 1

>  <target_organism>  (22) 
Homo sapiens

$$$$
CHEMBL3263913
     RDKit          2D

 27 30  0  0  0  0  0  0  0  0999 V2000
   -6.2961   -1.6453    0.0000 C   0  0  0  0  0  0  0  0  0  0  0  0
   -5.1814   -2.6490    0.0000 C   0  0  0  0  0  0  0  0  0  0  0  0
   -3.7548   -2.1855    0.0000 C   0  0  0  0  0  0  0  0  0  0  0  0
   -2.6401   -3.1891    0.0000 C   0  0  0  0  0  0  0  0  0  0  0  0
   -1.2135   -2.7256    0.0000 N   0  0  0  0  0  0  0  0  0  0  0  0
   -0.0000   -3.6073    0.0000 C   0  0  0  0  0  0  0  0  0  0  0  0
   -0.0000   -5.1073    0.0000 C   0  0  0  0  0  0  0  0  0  0  0  0
    1.2135   -2.7256    0.0000 C   0  0  0  0  0  0  0  0  0  0  0  0
    2.6401   -3.1891    0.0000 C   0  0  0  0  0  0  0  0  0  0  0  0
    2.9520   -4.6564    0.0000 C   0  0  0  0  0  0  0  0  0  0  0  0
    1.9483   -5.7711    0.0000 O   0  0  0  0  0  0  0  0  0  0  0  0
    2.6983   -7.0701    0.0000 C   0  0  0  0  0  0  0  0  0  0  0  0
    2.2348   -8.4967    0.0000 C   0  0  0  0  0  0  0  0  0  0  0  0
    3.2385   -9.6114    0.0000 C   0  0  0  0  0  0  0  0  0  0  0  0
    2.7749  -11.0380    0.0000 O   0  0  0  0  0  0  0  0  0  0  0  0
    4.7057   -9.2996    0.0000 C   0  0  0  0  0  0  0  0  0  0  0  0
    5.1692   -7.8730    0.0000 C   0  0  0  0  0  0  0  0  0  0  0  0
    6.6364   -7.5611    0.0000 O   0  0  0  0  0  0  0  0  0  0  0  0
    4.1655   -6.7583    0.0000 C   0  0  0  0  0  0  0  0  0  0  0  0
    4.3223   -5.2665    0.0000 C   0  0  0  0  0  0  0  0  0  0  0  0
    5.6213   -4.5165    0.0000 O   0  0  0  0  0  0  0  0  0  0  0  0
    0.7500   -1.2990    0.0000 C   0  0  0  0  0  0  0  0  0  0  0  0
    1.5000    0.0000    0.0000 C   0  0  0  0  0  0  0  0  0  0  0  0
    0.7500    1.2990    0.0000 C   0  0  0  0  0  0  0  0  0  0  0  0
   -0.7500    1.2990    0.0000 C   0  0  0  0  0  0  0  0  0  0  0  0
   -1.5000    0.0000    0.0000 C   0  0  0  0  0  0  0  0  0  0  0  0
   -0.7500   -1.2990    0.0000 C   0  0  0  0  0  0  0  0  0  0  0  0
  1  2  1  0
  2  3  1  0
  3  4  1  0
  4  5  1  0
  5  6  1  0
  6  7  1  0
  6  8  2  0
  8  9  1  0
  9 10  2  0
 10 11  1  0
 11 12  1  0
 12 13  2  0
 13 14  1  0
 14 15  1  0
 14 16  2  0
 16 17  1  0
 17 18  1  0
 17 19  2  0
 19 20  1  0
 20 21  2  0
  8 22  1  0
 22 23  2  0
 23 24  1  0
 24 25  2  0
 25 26  1  0
 26 27  2  0
 27  5  1  0
 20 10  1  0
 27 22  1  0
 19 12  1  0
M  END
>  <assay_description>  (23) 
Inhibition of ABCC2 (unknown origin) expressed in MDCK2 cells assessed as inhibition of calcein-AM efflux measured after 30 mins in presence of ABCB1 inhibitor GF120918 and ABCC1 inhibitor MK-571 by flow cytometry

>  <molecule_pref_name>  (23) 
None

>  <canonical_smiles>  (23) 
CCCCn1c(C)c(/C=C2\Oc3cc(O)cc(O)c3C2=O)c2ccccc21

>  <pchembl_value>  (23) 
4.94

>  <standard_type>  (23) 
IC50

>  <standard_relation>  (23) 
=

>  <standard_value>  (23) 
11400.0

>  <standard_units>  (23) 
nM

>  <target_pref_name>  (23) 
Canalicular multispecific organic anion transporter 1

>  <target_organism>  (23) 
Homo sapiens

$$$$
CHEMBL3263916
     RDKit          2D

 27 30  0  0  0  0  0  0  0  0999 V2000
   -4.6904   -6.5871    0.0000 C   0  0  0  0  0  0  0  0  0  0  0  0
   -4.3786   -5.1199    0.0000 C   0  0  0  0  0  0  0  0  0  0  0  0
   -2.9520   -4.6564    0.0000 C   0  0  0  0  0  0  0  0  0  0  0  0
   -2.6401   -3.1891    0.0000 C   0  0  0  0  0  0  0  0  0  0  0  0
   -1.2135   -2.7256    0.0000 N   0  0  0  0  0  0  0  0  0  0  0  0
   -0.0000   -3.6073    0.0000 C   0  0  0  0  0  0  0  0  0  0  0  0
    1.2135   -2.7256    0.0000 C   0  0  0  0  0  0  0  0  0  0  0  0
    2.6401   -3.1891    0.0000 C   0  0  0  0  0  0  0  0  0  0  0  0
    2.9520   -4.6564    0.0000 C   0  0  0  0  0  0  0  0  0  0  0  0
    1.9483   -5.7711    0.0000 O   0  0  0  0  0  0  0  0  0  0  0  0
    2.6983   -7.0701    0.0000 C   0  0  0  0  0  0  0  0  0  0  0  0
    2.2348   -8.4967    0.0000 C   0  0  0  0  0  0  0  0  0  0  0  0
    3.2385   -9.6114    0.0000 C   0  0  0  0  0  0  0  0  0  0  0  0
    2.7749  -11.0380    0.0000 O   0  0  0  0  0  0  0  0  0  0  0  0
    4.7057   -9.2996    0.0000 C   0  0  0  0  0  0  0  0  0  0  0  0
    5.1692   -7.8730    0.0000 C   0  0  0  0  0  0  0  0  0  0  0  0
    6.6364   -7.5611    0.0000 O   0  0  0  0  0  0  0  0  0  0  0  0
    4.1655   -6.7583    0.0000 C   0  0  0  0  0  0  0  0  0  0  0  0
    4.3223   -5.2665    0.0000 C   0  0  0  0  0  0  0  0  0  0  0  0
    5.6213   -4.5165    0.0000 O   0  0  0  0  0  0  0  0  0  0  0  0
    0.7500   -1.2990    0.0000 C   0  0  0  0  0  0  0  0  0  0  0  0
    1.5000    0.0000    0.0000 C   0  0  0  0  0  0  0  0  0  0  0  0
    0.7500    1.2990    0.0000 C   0  0  0  0  0  0  0  0  0  0  0  0
    1.5000    2.5981    0.0000 C   0  0  0  0  0  0  0  0  0  0  0  0
   -0.7500    1.2990    0.0000 C   0  0  0  0  0  0  0  0  0  0  0  0
   -1.5000    0.0000    0.0000 C   0  0  0  0  0  0  0  0  0  0  0  0
   -0.7500   -1.2990    0.0000 C   0  0  0  0  0  0  0  0  0  0  0  0
  1  2  1  0
  2  3  1  0
  3  4  1  0
  4  5  1  0
  5  6  1  0
  6  7  2  0
  7  8  1  0
  8  9  2  0
  9 10  1  0
 10 11  1  0
 11 12  2  0
 12 13  1  0
 13 14  1  0
 13 15  2  0
 15 16  1  0
 16 17  1  0
 16 18  2  0
 18 19  1  0
 19 20  2  0
  7 21  1  0
 21 22  2  0
 22 23  1  0
 23 24  1  0
 23 25  2  0
 25 26  1  0
 26 27  2  0
 27  5  1  0
 19  9  1  0
 27 21  1  0
 18 11  1  0
M  END
>  <assay_description>  (24) 
Inhibition of ABCC2 (unknown origin) expressed in MDCK2 cells assessed as inhibition of calcein-AM efflux measured after 30 mins in presence of ABCB1 inhibitor GF120918 and ABCC1 inhibitor MK-571 by flow cytometry

>  <molecule_pref_name>  (24) 
None

>  <canonical_smiles>  (24) 
CCCCn1cc(/C=C2\Oc3cc(O)cc(O)c3C2=O)c2cc(C)ccc21

>  <pchembl_value>  (24) 
5.32

>  <standard_type>  (24) 
IC50

>  <standard_relation>  (24) 
=

>  <standard_value>  (24) 
4800.0

>  <standard_units>  (24) 
nM

>  <target_pref_name>  (24) 
Canalicular multispecific organic anion transporter 1

>  <target_organism>  (24) 
Homo sapiens

$$$$
CHEMBL3263914
     RDKit          2D

 27 30  0  0  0  0  0  0  0  0999 V2000
   -4.6904   -6.5871    0.0000 C   0  0  0  0  0  0  0  0  0  0  0  0
   -4.3786   -5.1199    0.0000 C   0  0  0  0  0  0  0  0  0  0  0  0
   -2.9520   -4.6564    0.0000 C   0  0  0  0  0  0  0  0  0  0  0  0
   -2.6401   -3.1891    0.0000 C   0  0  0  0  0  0  0  0  0  0  0  0
   -1.2135   -2.7256    0.0000 N   0  0  0  0  0  0  0  0  0  0  0  0
   -0.0000   -3.6073    0.0000 C   0  0  0  0  0  0  0  0  0  0  0  0
    1.2135   -2.7256    0.0000 C   0  0  0  0  0  0  0  0  0  0  0  0
    2.6401   -3.1891    0.0000 C   0  0  0  0  0  0  0  0  0  0  0  0
    2.9520   -4.6564    0.0000 C   0  0  0  0  0  0  0  0  0  0  0  0
    1.9483   -5.7711    0.0000 O   0  0  0  0  0  0  0  0  0  0  0  0
    2.6983   -7.0701    0.0000 C   0  0  0  0  0  0  0  0  0  0  0  0
    2.2348   -8.4967    0.0000 C   0  0  0  0  0  0  0  0  0  0  0  0
    3.2385   -9.6114    0.0000 C   0  0  0  0  0  0  0  0  0  0  0  0
    2.7749  -11.0380    0.0000 O   0  0  0  0  0  0  0  0  0  0  0  0
    4.7057   -9.2996    0.0000 C   0  0  0  0  0  0  0  0  0  0  0  0
    5.1692   -7.8730    0.0000 C   0  0  0  0  0  0  0  0  0  0  0  0
    6.6364   -7.5611    0.0000 O   0  0  0  0  0  0  0  0  0  0  0  0
    4.1655   -6.7583    0.0000 C   0  0  0  0  0  0  0  0  0  0  0  0
    4.3223   -5.2665    0.0000 C   0  0  0  0  0  0  0  0  0  0  0  0
    5.6213   -4.5165    0.0000 O   0  0  0  0  0  0  0  0  0  0  0  0
    0.7500   -1.2990    0.0000 C   0  0  0  0  0  0  0  0  0  0  0  0
    1.5000    0.0000    0.0000 C   0  0  0  0  0  0  0  0  0  0  0  0
    0.7500    1.2990    0.0000 C   0  0  0  0  0  0  0  0  0  0  0  0
   -0.7500    1.2990    0.0000 C   0  0  0  0  0  0  0  0  0  0  0  0
   -1.5000    0.0000    0.0000 C   0  0  0  0  0  0  0  0  0  0  0  0
   -3.0000    0.0000    0.0000 C   0  0  0  0  0  0  0  0  0  0  0  0
   -0.7500   -1.2990    0.0000 C   0  0  0  0  0  0  0  0  0  0  0  0
  1  2  1  0
  2  3  1  0
  3  4  1  0
  4  5  1  0
  5  6  1  0
  6  7  2  0
  7  8  1  0
  8  9  2  0
  9 10  1  0
 10 11  1  0
 11 12  2  0
 12 13  1  0
 13 14  1  0
 13 15  2  0
 15 16  1  0
 16 17  1  0
 16 18  2  0
 18 19  1  0
 19 20  2  0
  7 21  1  0
 21 22  2  0
 22 23  1  0
 23 24  2  0
 24 25  1  0
 25 26  1  0
 25 27  2  0
 27  5  1  0
 19  9  1  0
 27 21  1  0
 18 11  1  0
M  END
>  <assay_description>  (25) 
Inhibition of ABCC2 (unknown origin) expressed in MDCK2 cells assessed as inhibition of calcein-AM efflux measured after 30 mins in presence of ABCB1 inhibitor GF120918 and ABCC1 inhibitor MK-571 by flow cytometry

>  <molecule_pref_name>  (25) 
None

>  <canonical_smiles>  (25) 
CCCCn1cc(/C=C2\Oc3cc(O)cc(O)c3C2=O)c2cccc(C)c21

>  <pchembl_value>  (25) 
5.35

>  <standard_type>  (25) 
IC50

>  <standard_relation>  (25) 
=

>  <standard_value>  (25) 
4500.0

>  <standard_units>  (25) 
nM

>  <target_pref_name>  (25) 
Canalicular multispecific organic anion transporter 1

>  <target_organism>  (25) 
Homo sapiens

$$$$
CHEMBL3263909
     RDKit          2D

 31 35  0  0  0  0  0  0  0  0999 V2000
   -1.3463   -9.5982    0.0000 C   0  0  0  0  0  0  0  0  0  0  0  0
   -1.0344   -8.1310    0.0000 O   0  0  0  0  0  0  0  0  0  0  0  0
   -2.1491   -7.1273    0.0000 C   0  0  0  0  0  0  0  0  0  0  0  0
   -3.5757   -7.5908    0.0000 C   0  0  0  0  0  0  0  0  0  0  0  0
   -4.6904   -6.5871    0.0000 C   0  0  0  0  0  0  0  0  0  0  0  0
   -4.3786   -5.1199    0.0000 C   0  0  0  0  0  0  0  0  0  0  0  0
   -2.9520   -4.6564    0.0000 C   0  0  0  0  0  0  0  0  0  0  0  0
   -2.6401   -3.1891    0.0000 C   0  0  0  0  0  0  0  0  0  0  0  0
   -1.2135   -2.7256    0.0000 N   0  0  0  0  0  0  0  0  0  0  0  0
   -0.0000   -3.6073    0.0000 C   0  0  0  0  0  0  0  0  0  0  0  0
    1.2135   -2.7256    0.0000 C   0  0  0  0  0  0  0  0  0  0  0  0
    2.6401   -3.1891    0.0000 C   0  0  0  0  0  0  0  0  0  0  0  0
    2.9520   -4.6564    0.0000 C   0  0  0  0  0  0  0  0  0  0  0  0
    1.9483   -5.7711    0.0000 O   0  0  0  0  0  0  0  0  0  0  0  0
    2.6983   -7.0701    0.0000 C   0  0  0  0  0  0  0  0  0  0  0  0
    2.2348   -8.4967    0.0000 C   0  0  0  0  0  0  0  0  0  0  0  0
    3.2385   -9.6114    0.0000 C   0  0  0  0  0  0  0  0  0  0  0  0
    2.7749  -11.0380    0.0000 O   0  0  0  0  0  0  0  0  0  0  0  0
    4.7057   -9.2996    0.0000 C   0  0  0  0  0  0  0  0  0  0  0  0
    5.1692   -7.8730    0.0000 C   0  0  0  0  0  0  0  0  0  0  0  0
    6.6364   -7.5611    0.0000 O   0  0  0  0  0  0  0  0  0  0  0  0
    4.1655   -6.7583    0.0000 C   0  0  0  0  0  0  0  0  0  0  0  0
    4.3223   -5.2665    0.0000 C   0  0  0  0  0  0  0  0  0  0  0  0
    5.6213   -4.5165    0.0000 O   0  0  0  0  0  0  0  0  0  0  0  0
    0.7500   -1.2990    0.0000 C   0  0  0  0  0  0  0  0  0  0  0  0
    1.5000    0.0000    0.0000 C   0  0  0  0  0  0  0  0  0  0  0  0
    0.7500    1.2990    0.0000 C   0  0  0  0  0  0  0  0  0  0  0  0
   -0.7500    1.2990    0.0000 C   0  0  0  0  0  0  0  0  0  0  0  0
   -1.5000    0.0000    0.0000 C   0  0  0  0  0  0  0  0  0  0  0  0
   -0.7500   -1.2990    0.0000 C   0  0  0  0  0  0  0  0  0  0  0  0
   -1.8373   -5.6601    0.0000 C   0  0  0  0  0  0  0  0  0  0  0  0
  1  2  1  0
  2  3  1  0
  3  4  2  0
  4  5  1  0
  5  6  2  0
  6  7  1  0
  7  8  1  0
  8  9  1  0
  9 10  1  0
 10 11  2  0
 11 12  1  0
 12 13  2  0
 13 14  1  0
 14 15  1  0
 15 16  2  0
 16 17  1  0
 17 18  1  0
 17 19  2  0
 19 20  1  0
 20 21  1  0
 20 22  2  0
 22 23  1  0
 23 24  2  0
 11 25  1  0
 25 26  2  0
 26 27  1  0
 27 28  2  0
 28 29  1  0
 29 30  2  0
  7 31  2  0
 31  3  1  0
 30  9  1  0
 23 13  1  0
 30 25  1  0
 22 15  1  0
M  END
>  <assay_description>  (26) 
Inhibition of ABCC2 (unknown origin) expressed in MDCK2 cells assessed as inhibition of calcein-AM efflux measured after 30 mins in presence of ABCB1 inhibitor GF120918 and ABCC1 inhibitor MK-571 by flow cytometry

>  <molecule_pref_name>  (26) 
None

>  <canonical_smiles>  (26) 
COc1cccc(Cn2cc(/C=C3\Oc4cc(O)cc(O)c4C3=O)c3ccccc32)c1

>  <pchembl_value>  (26) 
4.76

>  <standard_type>  (26) 
IC50

>  <standard_relation>  (26) 
=

>  <standard_value>  (26) 
17500.0

>  <standard_units>  (26) 
nM

>  <target_pref_name>  (26) 
Canalicular multispecific organic anion transporter 1

>  <target_organism>  (26) 
Homo sapiens

$$$$
CHEMBL3263910
     RDKit          2D

 30 34  0  0  0  0  0  0  0  0999 V2000
   -2.6401   -3.1891    0.0000 O   0  0  0  0  0  0  0  0  0  0  0  0
   -1.2135   -2.7256    0.0000 C   0  0  0  0  0  0  0  0  0  0  0  0
   -0.0000   -3.6073    0.0000 C   0  0  0  0  0  0  0  0  0  0  0  0
   -0.0000   -5.1073    0.0000 C   0  0  0  0  0  0  0  0  0  0  0  0
    1.2990   -5.8573    0.0000 C   0  0  0  0  0  0  0  0  0  0  0  0
    2.6694   -5.2472    0.0000 C   0  0  0  0  0  0  0  0  0  0  0  0
    3.6731   -6.3619    0.0000 N   0  0  0  0  0  0  0  0  0  0  0  0
    5.1648   -6.2051    0.0000 C   0  0  0  0  0  0  0  0  0  0  0  0
    5.7749   -4.8348    0.0000 C   0  0  0  0  0  0  0  0  0  0  0  0
    7.2667   -4.6780    0.0000 C   0  0  0  0  0  0  0  0  0  0  0  0
    7.8768   -3.3077    0.0000 C   0  0  0  0  0  0  0  0  0  0  0  0
    6.9951   -2.0942    0.0000 C   0  0  0  0  0  0  0  0  0  0  0  0
    5.5034   -2.2510    0.0000 C   0  0  0  0  0  0  0  0  0  0  0  0
    4.6217   -1.0374    0.0000 Br  0  0  0  0  0  0  0  0  0  0  0  0
    4.8933   -3.6213    0.0000 C   0  0  0  0  0  0  0  0  0  0  0  0
    2.9231   -7.6610    0.0000 C   0  0  0  0  0  0  0  0  0  0  0  0
    3.3866   -9.0875    0.0000 C   0  0  0  0  0  0  0  0  0  0  0  0
    2.3829  -10.2023    0.0000 C   0  0  0  0  0  0  0  0  0  0  0  0
    0.9157   -9.8904    0.0000 C   0  0  0  0  0  0  0  0  0  0  0  0
    0.4521   -8.4638    0.0000 C   0  0  0  0  0  0  0  0  0  0  0  0
    1.4558   -7.3491    0.0000 C   0  0  0  0  0  0  0  0  0  0  0  0
    1.2135   -2.7256    0.0000 O   0  0  0  0  0  0  0  0  0  0  0  0
    0.7500   -1.2990    0.0000 C   0  0  0  0  0  0  0  0  0  0  0  0
    1.5000    0.0000    0.0000 C   0  0  0  0  0  0  0  0  0  0  0  0
    0.7500    1.2990    0.0000 C   0  0  0  0  0  0  0  0  0  0  0  0
    1.5000    2.5981    0.0000 O   0  0  0  0  0  0  0  0  0  0  0  0
   -0.7500    1.2990    0.0000 C   0  0  0  0  0  0  0  0  0  0  0  0
   -1.5000    0.0000    0.0000 C   0  0  0  0  0  0  0  0  0  0  0  0
   -3.0000    0.0000    0.0000 O   0  0  0  0  0  0  0  0  0  0  0  0
   -0.7500   -1.2990    0.0000 C   0  0  0  0  0  0  0  0  0  0  0  0
  1  2  2  0
  2  3  1  0
  3  4  2  0
  4  5  1  0
  5  6  2  0
  6  7  1  0
  7  8  1  0
  8  9  1  0
  9 10  2  0
 10 11  1  0
 11 12  2  0
 12 13  1  0
 13 14  1  0
 13 15  2  0
  7 16  1  0
 16 17  2  0
 17 18  1  0
 18 19  2  0
 19 20  1  0
 20 21  2  0
  3 22  1  0
 22 23  1  0
 23 24  2  0
 24 25  1  0
 25 26  1  0
 25 27  2  0
 27 28  1  0
 28 29  1  0
 28 30  2  0
 30  2  1  0
 21  5  1  0
 30 23  1  0
 15  9  1  0
 21 16  1  0
M  END
>  <assay_description>  (27) 
Inhibition of ABCC2 (unknown origin) expressed in MDCK2 cells assessed as inhibition of calcein-AM efflux measured after 30 mins in presence of ABCB1 inhibitor GF120918 and ABCC1 inhibitor MK-571 by flow cytometry

>  <molecule_pref_name>  (27) 
None

>  <canonical_smiles>  (27) 
O=C1/C(=C/c2cn(Cc3cccc(Br)c3)c3ccccc23)Oc2cc(O)cc(O)c21

>  <pchembl_value>  (27) 
4.84

>  <standard_type>  (27) 
IC50

>  <standard_relation>  (27) 
=

>  <standard_value>  (27) 
14400.0

>  <standard_units>  (27) 
nM

>  <target_pref_name>  (27) 
Canalicular multispecific organic anion transporter 1

>  <target_organism>  (27) 
Homo sapiens

$$$$
CHEMBL3263907
     RDKit          2D

 29 33  0  0  0  0  0  0  0  0999 V2000
   -2.6401   -3.1891    0.0000 O   0  0  0  0  0  0  0  0  0  0  0  0
   -1.2135   -2.7256    0.0000 C   0  0  0  0  0  0  0  0  0  0  0  0
   -0.0000   -3.6073    0.0000 C   0  0  0  0  0  0  0  0  0  0  0  0
   -0.0000   -5.1073    0.0000 C   0  0  0  0  0  0  0  0  0  0  0  0
    1.2990   -5.8573    0.0000 C   0  0  0  0  0  0  0  0  0  0  0  0
    2.6694   -5.2472    0.0000 C   0  0  0  0  0  0  0  0  0  0  0  0
    3.6731   -6.3619    0.0000 N   0  0  0  0  0  0  0  0  0  0  0  0
    5.1648   -6.2051    0.0000 C   0  0  0  0  0  0  0  0  0  0  0  0
    5.7749   -4.8348    0.0000 C   0  0  0  0  0  0  0  0  0  0  0  0
    7.2667   -4.6780    0.0000 C   0  0  0  0  0  0  0  0  0  0  0  0
    7.8768   -3.3077    0.0000 C   0  0  0  0  0  0  0  0  0  0  0  0
    6.9951   -2.0942    0.0000 C   0  0  0  0  0  0  0  0  0  0  0  0
    5.5034   -2.2510    0.0000 C   0  0  0  0  0  0  0  0  0  0  0  0
    4.8933   -3.6213    0.0000 C   0  0  0  0  0  0  0  0  0  0  0  0
    2.9231   -7.6610    0.0000 C   0  0  0  0  0  0  0  0  0  0  0  0
    3.3866   -9.0875    0.0000 C   0  0  0  0  0  0  0  0  0  0  0  0
    2.3829  -10.2023    0.0000 C   0  0  0  0  0  0  0  0  0  0  0  0
    0.9157   -9.8904    0.0000 C   0  0  0  0  0  0  0  0  0  0  0  0
    0.4521   -8.4638    0.0000 C   0  0  0  0  0  0  0  0  0  0  0  0
    1.4558   -7.3491    0.0000 C   0  0  0  0  0  0  0  0  0  0  0  0
    1.2135   -2.7256    0.0000 O   0  0  0  0  0  0  0  0  0  0  0  0
    0.7500   -1.2990    0.0000 C   0  0  0  0  0  0  0  0  0  0  0  0
    1.5000    0.0000    0.0000 C   0  0  0  0  0  0  0  0  0  0  0  0
    0.7500    1.2990    0.0000 C   0  0  0  0  0  0  0  0  0  0  0  0
    1.5000    2.5981    0.0000 O   0  0  0  0  0  0  0  0  0  0  0  0
   -0.7500    1.2990    0.0000 C   0  0  0  0  0  0  0  0  0  0  0  0
   -1.5000    0.0000    0.0000 C   0  0  0  0  0  0  0  0  0  0  0  0
   -3.0000    0.0000    0.0000 O   0  0  0  0  0  0  0  0  0  0  0  0
   -0.7500   -1.2990    0.0000 C   0  0  0  0  0  0  0  0  0  0  0  0
  1  2  2  0
  2  3  1  0
  3  4  2  0
  4  5  1  0
  5  6  2  0
  6  7  1  0
  7  8  1  0
  8  9  1  0
  9 10  2  0
 10 11  1  0
 11 12  2  0
 12 13  1  0
 13 14  2  0
  7 15  1  0
 15 16  2  0
 16 17  1  0
 17 18  2  0
 18 19  1  0
 19 20  2  0
  3 21  1  0
 21 22  1  0
 22 23  2  0
 23 24  1  0
 24 25  1  0
 24 26  2  0
 26 27  1  0
 27 28  1  0
 27 29  2  0
 29  2  1  0
 20  5  1  0
 29 22  1  0
 14  9  1  0
 20 15  1  0
M  END
>  <assay_description>  (28) 
Inhibition of ABCC2 (unknown origin) expressed in MDCK2 cells assessed as inhibition of calcein-AM efflux measured after 30 mins in presence of ABCB1 inhibitor GF120918 and ABCC1 inhibitor MK-571 by flow cytometry

>  <molecule_pref_name>  (28) 
None

>  <canonical_smiles>  (28) 
O=C1/C(=C/c2cn(Cc3ccccc3)c3ccccc23)Oc2cc(O)cc(O)c21

>  <pchembl_value>  (28) 
4.91

>  <standard_type>  (28) 
IC50

>  <standard_relation>  (28) 
=

>  <standard_value>  (28) 
12200.0

>  <standard_units>  (28) 
nM

>  <target_pref_name>  (28) 
Canalicular multispecific organic anion transporter 1

>  <target_organism>  (28) 
Homo sapiens

$$$$
CHEMBL3263904
     RDKit          2D

 27 30  0  0  0  0  0  0  0  0999 V2000
   -4.6904   -6.5871    0.0000 C   0  0  0  0  0  0  0  0  0  0  0  0
   -4.3786   -5.1199    0.0000 C   0  0  0  0  0  0  0  0  0  0  0  0
   -5.4933   -4.1162    0.0000 C   0  0  0  0  0  0  0  0  0  0  0  0
   -2.9520   -4.6564    0.0000 C   0  0  0  0  0  0  0  0  0  0  0  0
   -2.6401   -3.1891    0.0000 C   0  0  0  0  0  0  0  0  0  0  0  0
   -1.2135   -2.7256    0.0000 N   0  0  0  0  0  0  0  0  0  0  0  0
   -0.0000   -3.6073    0.0000 C   0  0  0  0  0  0  0  0  0  0  0  0
    1.2135   -2.7256    0.0000 C   0  0  0  0  0  0  0  0  0  0  0  0
    2.6401   -3.1891    0.0000 C   0  0  0  0  0  0  0  0  0  0  0  0
    2.9520   -4.6564    0.0000 C   0  0  0  0  0  0  0  0  0  0  0  0
    1.9483   -5.7711    0.0000 O   0  0  0  0  0  0  0  0  0  0  0  0
    2.6983   -7.0701    0.0000 C   0  0  0  0  0  0  0  0  0  0  0  0
    2.2348   -8.4967    0.0000 C   0  0  0  0  0  0  0  0  0  0  0  0
    3.2385   -9.6114    0.0000 C   0  0  0  0  0  0  0  0  0  0  0  0
    2.7749  -11.0380    0.0000 O   0  0  0  0  0  0  0  0  0  0  0  0
    4.7057   -9.2996    0.0000 C   0  0  0  0  0  0  0  0  0  0  0  0
    5.1692   -7.8730    0.0000 C   0  0  0  0  0  0  0  0  0  0  0  0
    6.6364   -7.5611    0.0000 O   0  0  0  0  0  0  0  0  0  0  0  0
    4.1655   -6.7583    0.0000 C   0  0  0  0  0  0  0  0  0  0  0  0
    4.3223   -5.2665    0.0000 C   0  0  0  0  0  0  0  0  0  0  0  0
    5.6213   -4.5165    0.0000 O   0  0  0  0  0  0  0  0  0  0  0  0
    0.7500   -1.2990    0.0000 C   0  0  0  0  0  0  0  0  0  0  0  0
    1.5000    0.0000    0.0000 C   0  0  0  0  0  0  0  0  0  0  0  0
    0.7500    1.2990    0.0000 C   0  0  0  0  0  0  0  0  0  0  0  0
   -0.7500    1.2990    0.0000 C   0  0  0  0  0  0  0  0  0  0  0  0
   -1.5000    0.0000    0.0000 C   0  0  0  0  0  0  0  0  0  0  0  0
   -0.7500   -1.2990    0.0000 C   0  0  0  0  0  0  0  0  0  0  0  0
  1  2  1  0
  2  3  1  0
  2  4  2  3
  4  5  1  0
  5  6  1  0
  6  7  1  0
  7  8  2  0
  8  9  1  0
  9 10  2  0
 10 11  1  0
 11 12  1  0
 12 13  2  0
 13 14  1  0
 14 15  1  0
 14 16  2  0
 16 17  1  0
 17 18  1  0
 17 19  2  0
 19 20  1  0
 20 21  2  0
  8 22  1  0
 22 23  2  0
 23 24  1  0
 24 25  2  0
 25 26  1  0
 26 27  2  0
 27  6  1  0
 20 10  1  0
 27 22  1  0
 19 12  1  0
M  END
>  <assay_description>  (29) 
Inhibition of ABCC2 (unknown origin) expressed in MDCK2 cells assessed as inhibition of calcein-AM efflux measured after 30 mins in presence of ABCB1 inhibitor GF120918 and ABCC1 inhibitor MK-571 by flow cytometry

>  <molecule_pref_name>  (29) 
None

>  <canonical_smiles>  (29) 
CC(C)=CCn1cc(/C=C2\Oc3cc(O)cc(O)c3C2=O)c2ccccc21

>  <pchembl_value>  (29) 
4.97

>  <standard_type>  (29) 
IC50

>  <standard_relation>  (29) 
=

>  <standard_value>  (29) 
10600.0

>  <standard_units>  (29) 
nM

>  <target_pref_name>  (29) 
Canalicular multispecific organic anion transporter 1

>  <target_organism>  (29) 
Homo sapiens

$$$$
CHEMBL3263906
     RDKit          2D

 29 33  0  0  0  0  0  0  0  0999 V2000
   -2.6401   -3.1891    0.0000 O   0  0  0  0  0  0  0  0  0  0  0  0
   -1.2135   -2.7256    0.0000 C   0  0  0  0  0  0  0  0  0  0  0  0
   -0.0000   -3.6073    0.0000 C   0  0  0  0  0  0  0  0  0  0  0  0
   -0.0000   -5.1073    0.0000 C   0  0  0  0  0  0  0  0  0  0  0  0
    1.2990   -5.8573    0.0000 C   0  0  0  0  0  0  0  0  0  0  0  0
    2.6694   -5.2472    0.0000 C   0  0  0  0  0  0  0  0  0  0  0  0
    3.6731   -6.3619    0.0000 N   0  0  0  0  0  0  0  0  0  0  0  0
    5.1648   -6.2051    0.0000 C   0  0  0  0  0  0  0  0  0  0  0  0
    5.7749   -4.8348    0.0000 C   0  0  0  0  0  0  0  0  0  0  0  0
    7.2667   -4.6780    0.0000 C   0  0  0  0  0  0  0  0  0  0  0  0
    7.8768   -3.3077    0.0000 C   0  0  0  0  0  0  0  0  0  0  0  0
    6.9951   -2.0942    0.0000 C   0  0  0  0  0  0  0  0  0  0  0  0
    5.5034   -2.2510    0.0000 C   0  0  0  0  0  0  0  0  0  0  0  0
    4.8933   -3.6213    0.0000 C   0  0  0  0  0  0  0  0  0  0  0  0
    2.9231   -7.6610    0.0000 C   0  0  0  0  0  0  0  0  0  0  0  0
    3.3866   -9.0875    0.0000 C   0  0  0  0  0  0  0  0  0  0  0  0
    2.3829  -10.2023    0.0000 C   0  0  0  0  0  0  0  0  0  0  0  0
    0.9157   -9.8904    0.0000 C   0  0  0  0  0  0  0  0  0  0  0  0
    0.4521   -8.4638    0.0000 C   0  0  0  0  0  0  0  0  0  0  0  0
    1.4558   -7.3491    0.0000 C   0  0  0  0  0  0  0  0  0  0  0  0
    1.2135   -2.7256    0.0000 O   0  0  0  0  0  0  0  0  0  0  0  0
    0.7500   -1.2990    0.0000 C   0  0  0  0  0  0  0  0  0  0  0  0
    1.5000    0.0000    0.0000 C   0  0  0  0  0  0  0  0  0  0  0  0
    0.7500    1.2990    0.0000 C   0  0  0  0  0  0  0  0  0  0  0  0
    1.5000    2.5981    0.0000 O   0  0  0  0  0  0  0  0  0  0  0  0
   -0.7500    1.2990    0.0000 C   0  0  0  0  0  0  0  0  0  0  0  0
   -1.5000    0.0000    0.0000 C   0  0  0  0  0  0  0  0  0  0  0  0
   -3.0000    0.0000    0.0000 O   0  0  0  0  0  0  0  0  0  0  0  0
   -0.7500   -1.2990    0.0000 C   0  0  0  0  0  0  0  0  0  0  0  0
  1  2  2  0
  2  3  1  0
  3  4  2  0
  4  5  1  0
  5  6  2  0
  6  7  1  0
  7  8  1  0
  8  9  1  0
  9 10  1  0
 10 11  1  0
 11 12  1  0
 12 13  1  0
 13 14  1  0
  7 15  1  0
 15 16  2  0
 16 17  1  0
 17 18  2  0
 18 19  1  0
 19 20  2  0
  3 21  1  0
 21 22  1  0
 22 23  2  0
 23 24  1  0
 24 25  1  0
 24 26  2  0
 26 27  1  0
 27 28  1  0
 27 29  2  0
 29  2  1  0
 20  5  1  0
 29 22  1  0
 14  9  1  0
 20 15  1  0
M  END
>  <assay_description>  (30) 
Inhibition of ABCC2 (unknown origin) expressed in MDCK2 cells assessed as inhibition of calcein-AM efflux measured after 30 mins in presence of ABCB1 inhibitor GF120918 and ABCC1 inhibitor MK-571 by flow cytometry

>  <molecule_pref_name>  (30) 
None

>  <canonical_smiles>  (30) 
O=C1/C(=C/c2cn(CC3CCCCC3)c3ccccc23)Oc2cc(O)cc(O)c21

>  <pchembl_value>  (30) 
4.98

>  <standard_type>  (30) 
IC50

>  <standard_relation>  (30) 
=

>  <standard_value>  (30) 
10500.0

>  <standard_units>  (30) 
nM

>  <target_pref_name>  (30) 
Canalicular multispecific organic anion transporter 1

>  <target_organism>  (30) 
Homo sapiens

$$$$
CHEMBL3945493
     RDKit          2D

 27 30  0  0  0  0  0  0  0  0999 V2000
   -6.2961   -1.6453    0.0000 C   0  0  0  0  0  0  0  0  0  0  0  0
   -5.1814   -2.6490    0.0000 C   0  0  0  0  0  0  0  0  0  0  0  0
   -3.7548   -2.1855    0.0000 C   0  0  0  0  0  0  0  0  0  0  0  0
   -2.6401   -3.1891    0.0000 C   0  0  0  0  0  0  0  0  0  0  0  0
   -1.2135   -2.7256    0.0000 N   0  0  0  0  0  0  0  0  0  0  0  0
   -0.0000   -3.6073    0.0000 C   0  0  0  0  0  0  0  0  0  0  0  0
   -0.0000   -5.1073    0.0000 C   0  0  0  0  0  0  0  0  0  0  0  0
   -1.2990   -5.8573    0.0000 C   0  0  0  0  0  0  0  0  0  0  0  0
   -2.6694   -5.2472    0.0000 O   0  0  0  0  0  0  0  0  0  0  0  0
   -3.6731   -6.3619    0.0000 C   0  0  0  0  0  0  0  0  0  0  0  0
   -5.1731   -6.3619    0.0000 C   0  0  0  0  0  0  0  0  0  0  0  0
   -5.9231   -7.6610    0.0000 C   0  0  0  0  0  0  0  0  0  0  0  0
   -7.4231   -7.6610    0.0000 O   0  0  0  0  0  0  0  0  0  0  0  0
   -5.1731   -8.9600    0.0000 C   0  0  0  0  0  0  0  0  0  0  0  0
   -3.6731   -8.9600    0.0000 C   0  0  0  0  0  0  0  0  0  0  0  0
   -2.9231  -10.2590    0.0000 O   0  0  0  0  0  0  0  0  0  0  0  0
   -2.9231   -7.6610    0.0000 C   0  0  0  0  0  0  0  0  0  0  0  0
   -1.4558   -7.3491    0.0000 C   0  0  0  0  0  0  0  0  0  0  0  0
   -0.3411   -8.3528    0.0000 O   0  0  0  0  0  0  0  0  0  0  0  0
    1.2135   -2.7256    0.0000 C   0  0  0  0  0  0  0  0  0  0  0  0
    2.6401   -3.1891    0.0000 C   0  0  0  0  0  0  0  0  0  0  0  0
    0.7500   -1.2990    0.0000 C   0  0  0  0  0  0  0  0  0  0  0  0
    1.5000    0.0000    0.0000 C   0  0  0  0  0  0  0  0  0  0  0  0
    0.7500    1.2990    0.0000 C   0  0  0  0  0  0  0  0  0  0  0  0
   -0.7500    1.2990    0.0000 C   0  0  0  0  0  0  0  0  0  0  0  0
   -1.5000    0.0000    0.0000 C   0  0  0  0  0  0  0  0  0  0  0  0
   -0.7500   -1.2990    0.0000 C   0  0  0  0  0  0  0  0  0  0  0  0
  1  2  1  0
  2  3  1  0
  3  4  1  0
  4  5  1  0
  5  6  1  0
  6  7  1  0
  7  8  2  0
  8  9  1  0
  9 10  1  0
 10 11  2  0
 11 12  1  0
 12 13  1  0
 12 14  2  0
 14 15  1  0
 15 16  1  0
 15 17  2  0
 17 18  1  0
 18 19  2  0
  6 20  2  0
 20 21  1  0
 20 22  1  0
 22 23  2  0
 23 24  1  0
 24 25  2  0
 25 26  1  0
 26 27  2  0
 27  5  1  0
 18  8  1  0
 27 22  1  0
 17 10  1  0
M  END
>  <assay_description>  (31) 
Inhibition of ABCC2 (unknown origin) expressed in MDCK2 cells assessed as inhibition of calcein-AM efflux measured after 30 mins in presence of ABCB1 inhibitor GF120918 and ABCC1 inhibitor MK-571 by flow cytometry

>  <molecule_pref_name>  (31) 
None

>  <canonical_smiles>  (31) 
CCCCn1c(/C=C2\Oc3cc(O)cc(O)c3C2=O)c(C)c2ccccc21

>  <pchembl_value>  (31) 
5.09

>  <standard_type>  (31) 
IC50

>  <standard_relation>  (31) 
=

>  <standard_value>  (31) 
8200.0

>  <standard_units>  (31) 
nM

>  <target_pref_name>  (31) 
Canalicular multispecific organic anion transporter 1

>  <target_organism>  (31) 
Homo sapiens

$$$$
CHEMBL3263569
     RDKit          2D

 26 29  0  0  0  0  0  0  0  0999 V2000
   -6.2961   -1.6453    0.0000 C   0  0  0  0  0  0  0  0  0  0  0  0
   -5.1814   -2.6490    0.0000 C   0  0  0  0  0  0  0  0  0  0  0  0
   -3.7548   -2.1855    0.0000 C   0  0  0  0  0  0  0  0  0  0  0  0
   -2.6401   -3.1891    0.0000 C   0  0  0  0  0  0  0  0  0  0  0  0
   -1.2135   -2.7256    0.0000 N   0  0  0  0  0  0  0  0  0  0  0  0
   -0.0000   -3.6073    0.0000 C   0  0  0  0  0  0  0  0  0  0  0  0
   -0.0000   -5.1073    0.0000 C   0  0  0  0  0  0  0  0  0  0  0  0
   -1.2990   -5.8573    0.0000 C   0  0  0  0  0  0  0  0  0  0  0  0
   -2.6694   -5.2472    0.0000 O   0  0  0  0  0  0  0  0  0  0  0  0
   -3.6731   -6.3619    0.0000 C   0  0  0  0  0  0  0  0  0  0  0  0
   -5.1731   -6.3619    0.0000 C   0  0  0  0  0  0  0  0  0  0  0  0
   -5.9231   -7.6610    0.0000 C   0  0  0  0  0  0  0  0  0  0  0  0
   -7.4231   -7.6610    0.0000 O   0  0  0  0  0  0  0  0  0  0  0  0
   -5.1731   -8.9600    0.0000 C   0  0  0  0  0  0  0  0  0  0  0  0
   -3.6731   -8.9600    0.0000 C   0  0  0  0  0  0  0  0  0  0  0  0
   -2.9231  -10.2590    0.0000 O   0  0  0  0  0  0  0  0  0  0  0  0
   -2.9231   -7.6610    0.0000 C   0  0  0  0  0  0  0  0  0  0  0  0
   -1.4558   -7.3491    0.0000 C   0  0  0  0  0  0  0  0  0  0  0  0
   -0.3411   -8.3528    0.0000 O   0  0  0  0  0  0  0  0  0  0  0  0
    1.2135   -2.7256    0.0000 C   0  0  0  0  0  0  0  0  0  0  0  0
    0.7500   -1.2990    0.0000 C   0  0  0  0  0  0  0  0  0  0  0  0
    1.5000    0.0000    0.0000 C   0  0  0  0  0  0  0  0  0  0  0  0
    0.7500    1.2990    0.0000 C   0  0  0  0  0  0  0  0  0  0  0  0
   -0.7500    1.2990    0.0000 C   0  0  0  0  0  0  0  0  0  0  0  0
   -1.5000    0.0000    0.0000 C   0  0  0  0  0  0  0  0  0  0  0  0
   -0.7500   -1.2990    0.0000 C   0  0  0  0  0  0  0  0  0  0  0  0
  1  2  1  0
  2  3  1  0
  3  4  1  0
  4  5  1  0
  5  6  1  0
  6  7  1  0
  7  8  2  0
  8  9  1  0
  9 10  1  0
 10 11  2  0
 11 12  1  0
 12 13  1  0
 12 14  2  0
 14 15  1  0
 15 16  1  0
 15 17  2  0
 17 18  1  0
 18 19  2  0
  6 20  2  0
 20 21  1  0
 21 22  2  0
 22 23  1  0
 23 24  2  0
 24 25  1  0
 25 26  2  0
 26  5  1  0
 18  8  1  0
 26 21  1  0
 17 10  1  0
M  END
>  <assay_description>  (32) 
Inhibition of ABCC2 (unknown origin) expressed in MDCK2 cells assessed as inhibition of calcein-AM efflux measured after 30 mins in presence of ABCB1 inhibitor GF120918 and ABCC1 inhibitor MK-571 by flow cytometry

>  <molecule_pref_name>  (32) 
None

>  <canonical_smiles>  (32) 
CCCCn1c(/C=C2\Oc3cc(O)cc(O)c3C2=O)cc2ccccc21

>  <pchembl_value>  (32) 
5.05

>  <standard_type>  (32) 
IC50

>  <standard_relation>  (32) 
=

>  <standard_value>  (32) 
9000.0

>  <standard_units>  (32) 
nM

>  <target_pref_name>  (32) 
Canalicular multispecific organic anion transporter 1

>  <target_organism>  (32) 
Homo sapiens

$$$$
CHEMBL3263570
     RDKit          2D

 23 26  0  0  0  0  0  0  0  0999 V2000
   -2.6401   -3.1891    0.0000 C   0  0  0  0  0  0  0  0  0  0  0  0
   -1.2135   -2.7256    0.0000 N   0  0  0  0  0  0  0  0  0  0  0  0
   -0.0000   -3.6073    0.0000 C   0  0  0  0  0  0  0  0  0  0  0  0
   -0.0000   -5.1073    0.0000 C   0  0  0  0  0  0  0  0  0  0  0  0
   -1.2990   -5.8573    0.0000 C   0  0  0  0  0  0  0  0  0  0  0  0
   -2.6694   -5.2472    0.0000 O   0  0  0  0  0  0  0  0  0  0  0  0
   -3.6731   -6.3619    0.0000 C   0  0  0  0  0  0  0  0  0  0  0  0
   -5.1731   -6.3619    0.0000 C   0  0  0  0  0  0  0  0  0  0  0  0
   -5.9231   -7.6610    0.0000 C   0  0  0  0  0  0  0  0  0  0  0  0
   -7.4231   -7.6610    0.0000 O   0  0  0  0  0  0  0  0  0  0  0  0
   -5.1731   -8.9600    0.0000 C   0  0  0  0  0  0  0  0  0  0  0  0
   -3.6731   -8.9600    0.0000 C   0  0  0  0  0  0  0  0  0  0  0  0
   -2.9231  -10.2590    0.0000 O   0  0  0  0  0  0  0  0  0  0  0  0
   -2.9231   -7.6610    0.0000 C   0  0  0  0  0  0  0  0  0  0  0  0
   -1.4558   -7.3491    0.0000 C   0  0  0  0  0  0  0  0  0  0  0  0
   -0.3411   -8.3528    0.0000 O   0  0  0  0  0  0  0  0  0  0  0  0
    1.2135   -2.7256    0.0000 C   0  0  0  0  0  0  0  0  0  0  0  0
    0.7500   -1.2990    0.0000 C   0  0  0  0  0  0  0  0  0  0  0  0
    1.5000    0.0000    0.0000 C   0  0  0  0  0  0  0  0  0  0  0  0
    0.7500    1.2990    0.0000 C   0  0  0  0  0  0  0  0  0  0  0  0
   -0.7500    1.2990    0.0000 C   0  0  0  0  0  0  0  0  0  0  0  0
   -1.5000    0.0000    0.0000 C   0  0  0  0  0  0  0  0  0  0  0  0
   -0.7500   -1.2990    0.0000 C   0  0  0  0  0  0  0  0  0  0  0  0
  1  2  1  0
  2  3  1  0
  3  4  1  0
  4  5  2  0
  5  6  1  0
  6  7  1  0
  7  8  2  0
  8  9  1  0
  9 10  1  0
  9 11  2  0
 11 12  1  0
 12 13  1  0
 12 14  2  0
 14 15  1  0
 15 16  2  0
  3 17  2  0
 17 18  1  0
 18 19  2  0
 19 20  1  0
 20 21  2  0
 21 22  1  0
 22 23  2  0
 23  2  1  0
 15  5  1  0
 23 18  1  0
 14  7  1  0
M  END
>  <assay_description>  (33) 
Inhibition of ABCC2 (unknown origin) expressed in MDCK2 cells assessed as inhibition of calcein-AM efflux measured after 30 mins in presence of ABCB1 inhibitor GF120918 and ABCC1 inhibitor MK-571 by flow cytometry

>  <molecule_pref_name>  (33) 
None

>  <canonical_smiles>  (33) 
Cn1c(/C=C2\Oc3cc(O)cc(O)c3C2=O)cc2ccccc21

>  <pchembl_value>  (33) 
4.96

>  <standard_type>  (33) 
IC50

>  <standard_relation>  (33) 
=

>  <standard_value>  (33) 
11100.0

>  <standard_units>  (33) 
nM

>  <target_pref_name>  (33) 
Canalicular multispecific organic anion transporter 1

>  <target_organism>  (33) 
Homo sapiens

$$$$
CHEMBL772
     RDKit          2D

 44 49  0  0  0  0  0  0  0  0999 V2000
    6.0676   -8.0157    0.0000 C   0  0  0  0  0  0  0  0  0  0  0  0
    4.6973   -8.6258    0.0000 O   0  0  0  0  0  0  0  0  0  0  0  0
    3.4838   -7.7441    0.0000 C   0  0  0  0  0  0  0  0  0  0  0  0
    3.6406   -6.2523    0.0000 O   0  0  0  0  0  0  0  0  0  0  0  0
    2.1135   -8.3542    0.0000 C   0  0  0  0  0  0  0  0  0  0  0  0
    0.8999   -7.4725    0.0000 C   0  0  0  0  0  0  0  0  0  0  0  0
    1.0567   -5.9808    0.0000 C   0  0  0  0  0  0  0  0  0  0  0  0
   -0.1568   -5.0991    0.0000 C   0  0  0  0  0  0  0  0  0  0  0  0
   -0.0000   -3.6073    0.0000 C   0  0  0  0  0  0  0  0  0  0  0  0
    1.2135   -2.7256    0.0000 N   0  0  0  0  0  0  0  0  0  0  0  0
    0.7500   -1.2990    0.0000 C   0  0  0  0  0  0  0  0  0  0  0  0
    1.5000    0.0000    0.0000 C   0  0  0  0  0  0  0  0  0  0  0  0
    0.7500    1.2990    0.0000 C   0  0  0  0  0  0  0  0  0  0  0  0
    1.5000    2.5981    0.0000 O   0  0  0  0  0  0  0  0  0  0  0  0
    3.0000    2.5981    0.0000 C   0  0  0  0  0  0  0  0  0  0  0  0
   -0.7500    1.2990    0.0000 C   0  0  0  0  0  0  0  0  0  0  0  0
   -1.5000    0.0000    0.0000 C   0  0  0  0  0  0  0  0  0  0  0  0
   -0.7500   -1.2990    0.0000 C   0  0  0  0  0  0  0  0  0  0  0  0
   -1.2135   -2.7256    0.0000 C   0  0  0  0  0  0  0  0  0  0  0  0
   -2.5838   -3.3357    0.0000 C   0  0  0  0  0  0  0  0  0  0  0  0
   -2.7406   -4.8275    0.0000 C   0  0  0  0  0  0  0  0  0  0  0  0
   -1.5271   -5.7092    0.0000 N   0  0  0  0  0  0  0  0  0  0  0  0
   -1.6839   -7.2010    0.0000 C   0  0  0  0  0  0  0  0  0  0  0  0
   -0.4704   -8.0826    0.0000 C   0  0  0  0  0  0  0  0  0  0  0  0
   -0.6272   -9.5744    0.0000 C   0  0  0  0  0  0  0  0  0  0  0  0
    0.5864  -10.4561    0.0000 C   0  0  0  0  0  0  0  0  0  0  0  0
    0.4296  -11.9479    0.0000 O   0  0  0  0  0  0  0  0  0  0  0  0
   -0.9408  -12.5580    0.0000 C   0  0  0  0  0  0  0  0  0  0  0  0
   -2.1543  -11.6763    0.0000 O   0  0  0  0  0  0  0  0  0  0  0  0
   -1.0975  -14.0498    0.0000 C   0  0  0  0  0  0  0  0  0  0  0  0
   -2.4679  -14.6599    0.0000 C   0  0  0  0  0  0  0  0  0  0  0  0
   -2.6247  -16.1517    0.0000 C   0  0  0  0  0  0  0  0  0  0  0  0
   -3.9950  -16.7618    0.0000 O   0  0  0  0  0  0  0  0  0  0  0  0
   -5.2085  -15.8801    0.0000 C   0  0  0  0  0  0  0  0  0  0  0  0
   -1.4111  -17.0333    0.0000 C   0  0  0  0  0  0  0  0  0  0  0  0
   -1.5679  -18.5251    0.0000 O   0  0  0  0  0  0  0  0  0  0  0  0
   -0.3544  -19.4068    0.0000 C   0  0  0  0  0  0  0  0  0  0  0  0
   -0.0408  -16.4232    0.0000 C   0  0  0  0  0  0  0  0  0  0  0  0
    1.1727  -17.3049    0.0000 O   0  0  0  0  0  0  0  0  0  0  0  0
    2.5430  -16.6948    0.0000 C   0  0  0  0  0  0  0  0  0  0  0  0
    0.1160  -14.9315    0.0000 C   0  0  0  0  0  0  0  0  0  0  0  0
    1.9567   -9.8460    0.0000 C   0  0  0  0  0  0  0  0  0  0  0  0
    3.1702  -10.7277    0.0000 O   0  0  0  0  0  0  0  0  0  0  0  0
    3.0134  -12.2195    0.0000 C   0  0  0  0  0  0  0  0  0  0  0  0
  1  2  1  0
  2  3  1  0
  3  4  2  0
  5  3  1  6
  5  6  1  0
  6  7  1  6
  8  7  1  1
  8  9  1  0
  9 10  1  0
 10 11  1  0
 11 12  2  0
 12 13  1  0
 13 14  1  0
 14 15  1  0
 13 16  2  0
 16 17  1  0
 17 18  2  0
 18 19  1  0
 19 20  1  0
 20 21  1  0
 21 22  1  0
 22 23  1  0
 24 23  1  6
 24 25  1  0
 25 26  1  0
 26 27  1  6
 27 28  1  0
 28 29  2  0
 28 30  1  0
 30 31  2  0
 31 32  1  0
 32 33  1  0
 33 34  1  0
 32 35  2  0
 35 36  1  0
 36 37  1  0
 35 38  1  0
 38 39  1  0
 39 40  1  0
 38 41  2  0
 26 42  1  0
 42 43  1  1
 43 44  1  0
 42  5  1  0
 24  6  1  0
 41 30  1  0
 22  8  1  0
 19  9  2  0
 18 11  1  0
M  END
>  <assay_description>  (34) 
Inhibition of human MRP2 overexpressed in Sf9 cell membrane vesicles assessed as uptake of [3H]-estradiol-17beta-D-glucuronide in presence of ATP and GSH measured after 20 mins by membrane vesicle transport assay

>  <molecule_pref_name>  (34) 
RESERPINE

>  <canonical_smiles>  (34) 
COC(=O)[C@H]1[C@H]2C[C@@H]3c4[nH]c5cc(OC)ccc5c4CCN3C[C@H]2C[C@@H](OC(=O)c2cc(OC)c(OC)c(OC)c2)[C@@H]1OC

>  <pchembl_value>  (34) 
4.17

>  <standard_type>  (34) 
IC50

>  <standard_relation>  (34) 
=

>  <standard_value>  (34) 
68400.0

>  <standard_units>  (34) 
nM

>  <target_pref_name>  (34) 
Canalicular multispecific organic anion transporter 1

>  <target_organism>  (34) 
Homo sapiens

$$$$
CHEMBL1272
     RDKit          2D

 33 35  0  0  0  0  0  0  0  0999 V2000
    5.2500   -1.2990    0.0000 C   0  0  0  0  0  0  0  0  0  0  0  0
    3.7500   -1.2990    0.0000 C   0  0  0  0  0  0  0  0  0  0  0  0
    3.0000    0.0000    0.0000 O   0  0  0  0  0  0  0  0  0  0  0  0
    1.5000    0.0000    0.0000 C   0  0  0  0  0  0  0  0  0  0  0  0
    0.7500   -1.2990    0.0000 C   0  0  0  0  0  0  0  0  0  0  0  0
   -0.7500   -1.2990    0.0000 C   0  0  0  0  0  0  0  0  0  0  0  0
   -1.5000   -2.5981    0.0000 C   0  0  0  0  0  0  0  0  0  0  0  0
   -3.0000   -2.5981    0.0000 C   0  0  0  0  0  0  0  0  0  0  0  0
   -3.7500   -1.2990    0.0000 O   0  0  0  0  0  0  0  0  0  0  0  0
   -3.7500   -3.8971    0.0000 N   0  0  0  0  0  0  0  0  0  0  0  0
   -5.2500   -3.8971    0.0000 C   0  0  0  0  0  0  0  0  0  0  0  0
   -6.0000   -5.1962    0.0000 C   0  0  0  0  0  0  0  0  0  0  0  0
   -5.2500   -6.4952    0.0000 C   0  0  0  0  0  0  0  0  0  0  0  0
   -6.0000   -7.7942    0.0000 C   0  0  0  0  0  0  0  0  0  0  0  0
   -3.7500   -6.4952    0.0000 C   0  0  0  0  0  0  0  0  0  0  0  0
   -6.0000   -2.5981    0.0000 C   0  0  0  0  0  0  0  0  0  0  0  0
   -5.2500   -1.2990    0.0000 C   0  0  0  0  0  0  0  0  0  0  0  0
   -6.0000    0.0000    0.0000 C   0  0  0  0  0  0  0  0  0  0  0  0
   -7.5000    0.0000    0.0000 C   0  0  0  0  0  0  0  0  0  0  0  0
   -8.2500   -1.2990    0.0000 C   0  0  0  0  0  0  0  0  0  0  0  0
   -7.5000   -2.5981    0.0000 C   0  0  0  0  0  0  0  0  0  0  0  0
   -8.2500   -3.8971    0.0000 N   0  0  0  0  0  0  0  0  0  0  0  0
   -9.7500   -3.8971    0.0000 C   0  0  0  0  0  0  0  0  0  0  0  0
  -10.5000   -5.1962    0.0000 C   0  0  0  0  0  0  0  0  0  0  0  0
   -9.7500   -6.4952    0.0000 C   0  0  0  0  0  0  0  0  0  0  0  0
   -8.2500   -6.4952    0.0000 C   0  0  0  0  0  0  0  0  0  0  0  0
   -7.5000   -5.1962    0.0000 C   0  0  0  0  0  0  0  0  0  0  0  0
   -1.5000    0.0000    0.0000 C   0  0  0  0  0  0  0  0  0  0  0  0
   -0.7500    1.2990    0.0000 C   0  0  0  0  0  0  0  0  0  0  0  0
    0.7500    1.2990    0.0000 C   0  0  0  0  0  0  0  0  0  0  0  0
    1.5000    2.5981    0.0000 C   0  0  0  0  0  0  0  0  0  0  0  0
    0.7500    3.8971    0.0000 O   0  0  0  0  0  0  0  0  0  0  0  0
    3.0000    2.5981    0.0000 O   0  0  0  0  0  0  0  0  0  0  0  0
  1  2  1  0
  2  3  1  0
  3  4  1  0
  4  5  2  0
  5  6  1  0
  6  7  1  0
  7  8  1  0
  8  9  2  0
  8 10  1  0
 10 11  1  0
 11 12  1  1
 12 13  1  0
 13 14  1  0
 13 15  1  0
 11 16  1  0
 16 17  2  0
 17 18  1  0
 18 19  2  0
 19 20  1  0
 20 21  2  0
 21 22  1  0
 22 23  1  0
 23 24  1  0
 24 25  1  0
 25 26  1  0
 26 27  1  0
  6 28  2  0
 28 29  1  0
 29 30  2  0
 30 31  1  0
 31 32  2  0
 31 33  1  0
 30  4  1  0
 21 16  1  0
 27 22  1  0
M  END
>  <assay_description>  (35) 
Inhibition of human MRP2 overexpressed in Sf9 cell membrane vesicles assessed as uptake of [3H]-estradiol-17beta-D-glucuronide in presence of ATP and GSH measured after 20 mins by membrane vesicle transport assay

>  <molecule_pref_name>  (35) 
REPAGLINIDE

>  <canonical_smiles>  (35) 
CCOc1cc(CC(=O)N[C@@H](CC(C)C)c2ccccc2N2CCCCC2)ccc1C(=O)O

>  <pchembl_value>  (35) 
4.14

>  <standard_type>  (35) 
IC50

>  <standard_relation>  (35) 
=

>  <standard_value>  (35) 
72300.0

>  <standard_units>  (35) 
nM

>  <target_pref_name>  (35) 
Canalicular multispecific organic anion transporter 1

>  <target_organism>  (35) 
Homo sapiens

$$$$
CHEMBL269732
     RDKit          2D

 57 60  0  0  0  0  0  0  0  0999 V2000
   -6.0205  -12.7993    0.0000 C   0  0  0  0  0  0  0  0  0  0  0  0
   -5.1755  -11.5600    0.0000 C   0  0  0  0  0  0  0  0  0  0  0  0
   -3.6797  -11.6721    0.0000 C   0  0  0  0  0  0  0  0  0  0  0  0
   -2.8347  -10.4327    0.0000 C   0  0  0  0  0  0  0  0  0  0  0  0
   -1.4832  -11.0835    0.0000 C   0  0  0  0  0  0  0  0  0  0  0  0
   -0.0000  -11.3071    0.0000 C   0  0  0  0  0  0  0  0  0  0  0  0
   -0.0000  -12.8071    0.0000 C   0  0  0  0  0  0  0  0  0  0  0  0
    1.4832  -11.0835    0.0000 C   0  0  0  0  0  0  0  0  0  0  0  0
    2.8347  -10.4327    0.0000 C   0  0  0  0  0  0  0  0  0  0  0  0
    3.6797  -11.6721    0.0000 C   0  0  0  0  0  0  0  0  0  0  0  0
    3.9343   -9.4124    0.0000 C   0  0  0  0  0  0  0  0  0  0  0  0
    4.6843   -8.1134    0.0000 C   0  0  0  0  0  0  0  0  0  0  0  0
    6.0806   -8.6614    0.0000 O   0  0  0  0  0  0  0  0  0  0  0  0
    6.3042  -10.1447    0.0000 C   0  0  0  0  0  0  0  0  0  0  0  0
    5.0181   -6.6510    0.0000 C   0  0  0  0  0  0  0  0  0  0  0  0
    4.9060   -5.1552    0.0000 O   0  0  0  0  0  0  0  0  0  0  0  0
    4.3580   -3.7589    0.0000 C   0  0  0  0  0  0  0  0  0  0  0  0
    5.6570   -3.0089    0.0000 O   0  0  0  0  0  0  0  0  0  0  0  0
    3.4227   -2.5862    0.0000 C   0  0  0  0  0  0  0  0  0  0  0  0
    4.4430   -1.4866    0.0000 O   0  0  0  0  0  0  0  0  0  0  0  0
    2.1834   -1.7412    0.0000 C   0  0  0  0  0  0  0  0  0  0  0  0
    2.8342   -0.3897    0.0000 O   0  0  0  0  0  0  0  0  0  0  0  0
    0.7500   -1.2990    0.0000 N   0  0  0  0  0  0  0  0  0  0  0  0
    1.5000    0.0000    0.0000 C   0  0  0  0  0  0  0  0  0  0  0  0
    0.7500    1.2990    0.0000 C   0  0  0  0  0  0  0  0  0  0  0  0
   -0.7500    1.2990    0.0000 C   0  0  0  0  0  0  0  0  0  0  0  0
   -1.5000    0.0000    0.0000 C   0  0  0  0  0  0  0  0  0  0  0  0
   -0.7500   -1.2990    0.0000 C   0  0  0  0  0  0  0  0  0  0  0  0
   -2.1834   -1.7412    0.0000 C   0  0  0  0  0  0  0  0  0  0  0  0
   -2.8342   -0.3897    0.0000 O   0  0  0  0  0  0  0  0  0  0  0  0
   -3.4227   -2.5862    0.0000 O   0  0  0  0  0  0  0  0  0  0  0  0
   -4.3580   -3.7589    0.0000 C   0  0  0  0  0  0  0  0  0  0  0  0
   -5.6570   -3.0089    0.0000 C   0  0  0  0  0  0  0  0  0  0  0  0
   -6.9560   -3.7589    0.0000 C   0  0  0  0  0  0  0  0  0  0  0  0
   -5.6570   -1.5089    0.0000 C   0  0  0  0  0  0  0  0  0  0  0  0
   -6.9560   -0.7589    0.0000 C   0  0  0  0  0  0  0  0  0  0  0  0
   -6.9560    0.7411    0.0000 C   0  0  0  0  0  0  0  0  0  0  0  0
   -8.2551    1.4911    0.0000 C   0  0  0  0  0  0  0  0  0  0  0  0
   -9.5541    0.7411    0.0000 C   0  0  0  0  0  0  0  0  0  0  0  0
  -10.8531    1.4911    0.0000 O   0  0  0  0  0  0  0  0  0  0  0  0
   -9.5541   -0.7589    0.0000 C   0  0  0  0  0  0  0  0  0  0  0  0
  -10.8531   -1.5089    0.0000 O   0  0  0  0  0  0  0  0  0  0  0  0
  -10.8531   -3.0089    0.0000 C   0  0  0  0  0  0  0  0  0  0  0  0
   -8.2551   -1.5089    0.0000 C   0  0  0  0  0  0  0  0  0  0  0  0
   -4.9060   -5.1552    0.0000 C   0  0  0  0  0  0  0  0  0  0  0  0
   -6.3684   -4.8214    0.0000 C   0  0  0  0  0  0  0  0  0  0  0  0
   -5.0181   -6.6510    0.0000 C   0  0  0  0  0  0  0  0  0  0  0  0
   -6.5139   -6.7631    0.0000 O   0  0  0  0  0  0  0  0  0  0  0  0
   -4.6843   -8.1134    0.0000 C   0  0  0  0  0  0  0  0  0  0  0  0
   -3.9343   -9.4124    0.0000 C   0  0  0  0  0  0  0  0  0  0  0  0
   -5.1070  -10.3477    0.0000 O   0  0  0  0  0  0  0  0  0  0  0  0
    5.9023   -3.7843    0.0000 C   0  0  0  0  0  0  0  0  0  0  0  0
    6.3445   -2.3509    0.0000 C   0  0  0  0  0  0  0  0  0  0  0  0
    6.9226   -4.8839    0.0000 C   0  0  0  0  0  0  0  0  0  0  0  0
    6.4805   -6.3172    0.0000 C   0  0  0  0  0  0  0  0  0  0  0  0
    7.5007   -7.4168    0.0000 O   0  0  0  0  0  0  0  0  0  0  0  0
    8.9631   -7.0830    0.0000 C   0  0  0  0  0  0  0  0  0  0  0  0
  1  2  2  0
  2  3  1  0
  4  3  1  1
  4  5  1  0
  5  6  2  0
  6  7  1  0
  6  8  1  0
  8  9  1  0
  9 10  1  1
  9 11  1  0
 11 12  1  0
 12 13  1  1
 13 14  1  0
 12 15  1  0
 15 16  1  1
 16 17  1  0
 17 18  1  6
 17 19  1  0
 19 20  2  0
 19 21  1  0
 21 22  2  0
 21 23  1  0
 23 24  1  0
 24 25  1  0
 25 26  1  0
 26 27  1  0
 28 27  1  6
 28 29  1  0
 29 30  2  0
 29 31  1  0
 31 32  1  0
 32 33  1  1
 33 34  1  0
 33 35  2  0
 36 35  1  1
 36 37  1  0
 37 38  1  0
 38 39  1  0
 39 40  1  6
 39 41  1  0
 41 42  1  1
 42 43  1  0
 41 44  1  0
 32 45  1  0
 45 46  1  1
 45 47  1  0
 47 48  1  6
 47 49  1  0
 49 50  1  0
 50 51  2  0
 17 52  1  0
 52 53  1  6
 52 54  1  0
 54 55  1  0
 55 56  1  6
 56 57  1  0
 50  4  1  0
 55 15  1  0
 28 23  1  0
 44 36  1  0
M  END
>  <assay_description>  (36) 
Inhibition of human MRP2 overexpressed in Sf9 cell membrane vesicles assessed as uptake of [3H]-estradiol-17beta-D-glucuronide in presence of ATP and GSH measured after 20 mins by membrane vesicle transport assay

>  <molecule_pref_name>  (36) 
TACROLIMUS

>  <canonical_smiles>  (36) 
C=CC[C@@H]1/C=C(\C)C[C@H](C)C[C@H](OC)[C@H]2O[C@@](O)(C(=O)C(=O)N3CCCC[C@H]3C(=O)O[C@H](/C(C)=C/[C@@H]3CC[C@@H](O)[C@H](OC)C3)[C@H](C)[C@@H](O)CC1=O)[C@H](C)C[C@@H]2OC

>  <pchembl_value>  (36) 
4.39

>  <standard_type>  (36) 
IC50

>  <standard_relation>  (36) 
=

>  <standard_value>  (36) 
40300.0

>  <standard_units>  (36) 
nM

>  <target_pref_name>  (36) 
Canalicular multispecific organic anion transporter 1

>  <target_organism>  (36) 
Homo sapiens

$$$$
CHEMBL444633
     RDKit          2D

 61 66  0  0  0  0  0  0  0  0999 V2000
   -4.9384  -13.3410    0.0000 C   0  0  0  0  0  0  0  0  0  0  0  0
   -3.5219  -13.8343    0.0000 O   0  0  0  0  0  0  0  0  0  0  0  0
   -2.3864  -12.8541    0.0000 C   0  0  0  0  0  0  0  0  0  0  0  0
   -3.2100  -11.6004    0.0000 C   0  0  0  0  0  0  0  0  0  0  0  0
   -3.6810  -10.1763    0.0000 C   0  0  0  0  0  0  0  0  0  0  0  0
   -3.7674   -8.6788    0.0000 O   0  0  0  0  0  0  0  0  0  0  0  0
   -2.3527   -6.6731    0.0000 C   0  0  0  0  0  0  0  0  0  0  0  0
   -3.8527   -6.6731    0.0000 C   0  0  0  0  0  0  0  0  0  0  0  0
   -1.4710   -7.8866    0.0000 O   0  0  0  0  0  0  0  0  0  0  0  0
   -0.0444   -7.4231    0.0000 C   0  0  0  0  0  0  0  0  0  0  0  0
    1.2546   -8.1731    0.0000 C   0  0  0  0  0  0  0  0  0  0  0  0
    1.2546   -9.6731    0.0000 C   0  0  0  0  0  0  0  0  0  0  0  0
    2.5537   -7.4231    0.0000 C   0  0  0  0  0  0  0  0  0  0  0  0
    3.8527   -8.1731    0.0000 O   0  0  0  0  0  0  0  0  0  0  0  0
    2.5537   -5.9231    0.0000 C   0  0  0  0  0  0  0  0  0  0  0  0
    1.2546   -5.1731    0.0000 C   0  0  0  0  0  0  0  0  0  0  0  0
   -0.0444   -5.9231    0.0000 C   0  0  0  0  0  0  0  0  0  0  0  0
   -1.4710   -5.4595    0.0000 C   0  0  0  0  0  0  0  0  0  0  0  0
   -1.9345   -4.0329    0.0000 O   0  0  0  0  0  0  0  0  0  0  0  0
    1.2546   -3.6731    0.0000 C   0  0  0  0  0  0  0  0  0  0  0  0
    0.1399   -2.6694    0.0000 N   0  0  0  0  0  0  0  0  0  0  0  0
    0.7500   -1.2990    0.0000 C   0  0  0  0  0  0  0  0  0  0  0  0
    1.5000    0.0000    0.0000 C   0  0  0  0  0  0  0  0  0  0  0  0
    0.7500    1.2990    0.0000 C   0  0  0  0  0  0  0  0  0  0  0  0
   -0.7500    1.2990    0.0000 N   0  0  0  0  0  0  0  0  0  0  0  0
   -1.5000    2.5981    0.0000 C   0  0  0  0  0  0  0  0  0  0  0  0
   -0.7500    3.8971    0.0000 C   0  0  0  0  0  0  0  0  0  0  0  0
   -1.5000    5.1962    0.0000 C   0  0  0  0  0  0  0  0  0  0  0  0
    0.7500    3.8971    0.0000 C   0  0  0  0  0  0  0  0  0  0  0  0
   -1.5000    0.0000    0.0000 C   0  0  0  0  0  0  0  0  0  0  0  0
   -0.7500   -1.2990    0.0000 C   0  0  0  0  0  0  0  0  0  0  0  0
    2.2418   -1.4558    0.0000 N   0  0  0  0  0  0  0  0  0  0  0  0
    2.5537   -2.9231    0.0000 C   0  0  0  0  0  0  0  0  0  0  0  0
    3.8527   -3.6731    0.0000 C   0  0  0  0  0  0  0  0  0  0  0  0
    5.1928   -4.3470    0.0000 N   0  0  0  0  0  0  0  0  0  0  0  0
    6.3127   -5.3448    0.0000 C   0  0  0  0  0  0  0  0  0  0  0  0
    7.4482   -4.3646    0.0000 O   0  0  0  0  0  0  0  0  0  0  0  0
    7.1363   -6.5985    0.0000 C   0  0  0  0  0  0  0  0  0  0  0  0
    8.4868   -5.9456    0.0000 C   0  0  0  0  0  0  0  0  0  0  0  0
    7.6073   -8.0226    0.0000 C   0  0  0  0  0  0  0  0  0  0  0  0
    7.6937   -9.5201    0.0000 C   0  0  0  0  0  0  0  0  0  0  0  0
    7.3896  -10.9890    0.0000 C   0  0  0  0  0  0  0  0  0  0  0  0
    6.7156  -12.3291    0.0000 C   0  0  0  0  0  0  0  0  0  0  0  0
    7.9563  -13.1721    0.0000 C   0  0  0  0  0  0  0  0  0  0  0  0
    5.7178  -13.4490    0.0000 C   0  0  0  0  0  0  0  0  0  0  0  0
    6.6980  -14.5845    0.0000 O   0  0  0  0  0  0  0  0  0  0  0  0
    4.4641  -14.2726    0.0000 C   0  0  0  0  0  0  0  0  0  0  0  0
    5.1170  -15.6231    0.0000 C   0  0  0  0  0  0  0  0  0  0  0  0
    3.0400  -14.7436    0.0000 C   0  0  0  0  0  0  0  0  0  0  0  0
    3.3211  -16.2171    0.0000 O   0  0  0  0  0  0  0  0  0  0  0  0
    1.5425  -14.8300    0.0000 C   0  0  0  0  0  0  0  0  0  0  0  0
    1.4327  -16.3260    0.0000 C   0  0  0  0  0  0  0  0  0  0  0  0
    0.0737  -14.5259    0.0000 C   0  0  0  0  0  0  0  0  0  0  0  0
   -0.4196  -15.9425    0.0000 O   0  0  0  0  0  0  0  0  0  0  0  0
    0.5606  -17.0779    0.0000 C   0  0  0  0  0  0  0  0  0  0  0  0
    2.0340  -16.7968    0.0000 C   0  0  0  0  0  0  0  0  0  0  0  0
    0.0673  -18.4945    0.0000 O   0  0  0  0  0  0  0  0  0  0  0  0
   -1.2664  -13.8519    0.0000 C   0  0  0  0  0  0  0  0  0  0  0  0
   -2.1095  -15.0926    0.0000 C   0  0  0  0  0  0  0  0  0  0  0  0
    3.8527   -5.1731    0.0000 C   0  0  0  0  0  0  0  0  0  0  0  0
    5.1517   -5.9231    0.0000 O   0  0  0  0  0  0  0  0  0  0  0  0
  1  2  1  0
  3  2  1  1
  3  4  1  0
  4  5  2  0
  5  6  1  0
  6  7  1  0
  7  8  1  1
  7  9  1  0
  9 10  1  0
 10 11  2  0
 11 12  1  0
 11 13  1  0
 13 14  1  0
 13 15  2  0
 15 16  1  0
 16 17  2  0
 17 18  1  0
 18 19  2  0
 16 20  1  0
 20 21  2  0
 21 22  1  0
 22 23  1  0
 23 24  1  0
 24 25  1  0
 25 26  1  0
 26 27  1  0
 27 28  1  0
 27 29  1  0
 25 30  1  0
 30 31  1  0
 22 32  1  0
 32 33  1  0
 33 34  2  0
 34 35  1  0
 35 36  1  0
 36 37  2  0
 36 38  1  0
 38 39  1  0
 38 40  2  0
 40 41  1  0
 41 42  2  0
 42 43  1  0
 43 44  1  6
 43 45  1  0
 45 46  1  6
 45 47  1  0
 47 48  1  1
 47 49  1  0
 49 50  1  1
 49 51  1  0
 51 52  1  1
 51 53  1  0
 53 54  1  6
 54 55  1  0
 55 56  1  0
 55 57  2  0
 53 58  1  0
 58 59  1  6
 34 60  1  0
 60 61  2  0
 58  3  1  0
 18  7  1  0
 33 20  1  0
 17 10  1  0
 31 22  1  0
 60 15  1  0
M  END
>  <assay_description>  (37) 
Inhibition of human MRP2 overexpressed in Sf9 cell membrane vesicles assessed as uptake of [3H]-estradiol-17beta-D-glucuronide in presence of ATP and GSH measured after 20 mins by membrane vesicle transport assay

>  <molecule_pref_name>  (37) 
RIFABUTIN

>  <canonical_smiles>  (37) 
CO[C@H]1/C=C/O[C@@]2(C)Oc3c(C)c(O)c4c(c3C2=O)C2=NC3(CCN(CC(C)C)CC3)NC2=C(NC(=O)/C(C)=C\C=C\[C@H](C)[C@H](O)[C@@H](C)[C@@H](O)[C@@H](C)[C@H](OC(C)=O)[C@@H]1C)C4=O

>  <pchembl_value>  (37) 
4.30

>  <standard_type>  (37) 
IC50

>  <standard_relation>  (37) 
=

>  <standard_value>  (37) 
49800.0

>  <standard_units>  (37) 
nM

>  <target_pref_name>  (37) 
Canalicular multispecific organic anion transporter 1

>  <target_organism>  (37) 
Homo sapiens

$$$$
CHEMBL1096885
     RDKit          2D

 51 55  0  0  0  0  0  0  0  0999 V2000
   -4.3044  -18.8588    0.0000 C   0  0  0  0  0  0  0  0  0  0  0  0
   -3.1553  -17.8947    0.0000 C   0  0  0  0  0  0  0  0  0  0  0  0
   -3.4158  -16.4174    0.0000 C   0  0  0  0  0  0  0  0  0  0  0  0
   -2.2667  -15.4533    0.0000 C   0  0  0  0  0  0  0  0  0  0  0  0
   -2.5272  -13.9761    0.0000 C   0  0  0  0  0  0  0  0  0  0  0  0
   -3.9367  -13.4630    0.0000 O   0  0  0  0  0  0  0  0  0  0  0  0
   -1.3781  -13.0119    0.0000 O   0  0  0  0  0  0  0  0  0  0  0  0
   -1.6386  -11.5347    0.0000 C   0  0  0  0  0  0  0  0  0  0  0  0
   -0.4895  -10.5705    0.0000 C   0  0  0  0  0  0  0  0  0  0  0  0
    0.9200  -11.0835    0.0000 O   0  0  0  0  0  0  0  0  0  0  0  0
   -0.7500   -9.0933    0.0000 C   0  0  0  0  0  0  0  0  0  0  0  0
   -2.1595   -9.6063    0.0000 O   0  0  0  0  0  0  0  0  0  0  0  0
   -1.5000   -7.7942    0.0000 C   0  0  0  0  0  0  0  0  0  0  0  0
   -0.7500   -6.4952    0.0000 C   0  0  0  0  0  0  0  0  0  0  0  0
   -1.5000   -5.1962    0.0000 C   0  0  0  0  0  0  0  0  0  0  0  0
   -3.0000   -5.1962    0.0000 O   0  0  0  0  0  0  0  0  0  0  0  0
   -0.7500   -3.8971    0.0000 C   0  0  0  0  0  0  0  0  0  0  0  0
    0.7500   -3.8971    0.0000 C   0  0  0  0  0  0  0  0  0  0  0  0
    1.5000   -5.1962    0.0000 C   0  0  0  0  0  0  0  0  0  0  0  0
    3.0000   -5.1962    0.0000 O   0  0  0  0  0  0  0  0  0  0  0  0
    0.7500   -6.4952    0.0000 C   0  0  0  0  0  0  0  0  0  0  0  0
    1.5000   -7.7942    0.0000 C   0  0  0  0  0  0  0  0  0  0  0  0
    3.0000   -7.7942    0.0000 O   0  0  0  0  0  0  0  0  0  0  0  0
    3.7500   -9.0933    0.0000 C   0  0  0  0  0  0  0  0  0  0  0  0
    3.0000  -10.3923    0.0000 C   0  0  0  0  0  0  0  0  0  0  0  0
    3.7500  -11.6913    0.0000 C   0  0  0  0  0  0  0  0  0  0  0  0
    3.0000  -12.9904    0.0000 N   0  0  0  0  0  0  0  0  0  0  0  0
    3.7500  -14.2894    0.0000 C   0  0  0  0  0  0  0  0  0  0  0  0
    5.2500  -14.2894    0.0000 O   0  0  0  0  0  0  0  0  0  0  0  0
    3.0000  -15.5885    0.0000 C   0  0  0  0  0  0  0  0  0  0  0  0
    2.2500  -16.8875    0.0000 F   0  0  0  0  0  0  0  0  0  0  0  0
    4.2990  -16.3385    0.0000 F   0  0  0  0  0  0  0  0  0  0  0  0
    1.7010  -14.8385    0.0000 F   0  0  0  0  0  0  0  0  0  0  0  0
    5.2500  -11.6913    0.0000 C   0  0  0  0  0  0  0  0  0  0  0  0
    6.0000  -12.9904    0.0000 O   0  0  0  0  0  0  0  0  0  0  0  0
    6.0000  -10.3923    0.0000 C   0  0  0  0  0  0  0  0  0  0  0  0
    7.5000  -10.3923    0.0000 C   0  0  0  0  0  0  0  0  0  0  0  0
    5.2500   -9.0933    0.0000 O   0  0  0  0  0  0  0  0  0  0  0  0
    0.7500   -9.0933    0.0000 C   0  0  0  0  0  0  0  0  0  0  0  0
    1.5000   -2.5981    0.0000 C   0  0  0  0  0  0  0  0  0  0  0  0
    3.0000   -2.5981    0.0000 O   0  0  0  0  0  0  0  0  0  0  0  0
    0.7500   -1.2990    0.0000 C   0  0  0  0  0  0  0  0  0  0  0  0
    1.5000    0.0000    0.0000 C   0  0  0  0  0  0  0  0  0  0  0  0
    3.0000    0.0000    0.0000 O   0  0  0  0  0  0  0  0  0  0  0  0
    3.7500    1.2990    0.0000 C   0  0  0  0  0  0  0  0  0  0  0  0
    0.7500    1.2990    0.0000 C   0  0  0  0  0  0  0  0  0  0  0  0
   -0.7500    1.2990    0.0000 C   0  0  0  0  0  0  0  0  0  0  0  0
   -1.5000    0.0000    0.0000 C   0  0  0  0  0  0  0  0  0  0  0  0
   -0.7500   -1.2990    0.0000 C   0  0  0  0  0  0  0  0  0  0  0  0
   -1.5000   -2.5981    0.0000 C   0  0  0  0  0  0  0  0  0  0  0  0
   -3.0000   -2.5981    0.0000 O   0  0  0  0  0  0  0  0  0  0  0  0
  1  2  1  0
  2  3  1  0
  3  4  1  0
  4  5  1  0
  5  6  2  0
  5  7  1  0
  7  8  1  0
  8  9  1  0
  9 10  2  0
  9 11  1  0
 11 12  1  1
 11 13  1  0
 13 14  1  0
 14 15  2  0
 15 16  1  0
 15 17  1  0
 17 18  2  0
 18 19  1  0
 19 20  1  0
 19 21  2  0
 21 22  1  0
 22 23  1  1
 24 23  1  6
 24 25  1  0
 25 26  1  0
 26 27  1  1
 27 28  1  0
 28 29  2  0
 28 30  1  0
 30 31  1  0
 30 32  1  0
 30 33  1  0
 26 34  1  0
 34 35  1  1
 34 36  1  0
 36 37  1  1
 36 38  1  0
 22 39  1  0
 18 40  1  0
 40 41  2  0
 40 42  1  0
 42 43  2  0
 43 44  1  0
 44 45  1  0
 43 46  1  0
 46 47  2  0
 47 48  1  0
 48 49  2  0
 49 50  1  0
 50 51  2  0
 39 11  1  0
 49 42  1  0
 21 14  1  0
 38 24  1  0
 50 17  1  0
M  END
>  <assay_description>  (38) 
Inhibition of human MRP2 overexpressed in Sf9 cell membrane vesicles assessed as uptake of [3H]-estradiol-17beta-D-glucuronide in presence of ATP and GSH measured after 20 mins by membrane vesicle transport assay

>  <molecule_pref_name>  (38) 
VALRUBICIN

>  <canonical_smiles>  (38) 
CCCCC(=O)OCC(=O)[C@]1(O)Cc2c(O)c3c(c(O)c2[C@@H](O[C@H]2C[C@H](NC(=O)C(F)(F)F)[C@H](O)[C@H](C)O2)C1)C(=O)c1c(OC)cccc1C3=O

>  <pchembl_value>  (38) 
4.19

>  <standard_type>  (38) 
IC50

>  <standard_relation>  (38) 
=

>  <standard_value>  (38) 
64000.0

>  <standard_units>  (38) 
nM

>  <target_pref_name>  (38) 
Canalicular multispecific organic anion transporter 1

>  <target_organism>  (38) 
Homo sapiens

$$$$
CHEMBL1292
     RDKit          2D

 33 37  0  0  0  0  0  0  0  0999 V2000
    3.7500   -9.0933    0.0000 C   0  0  0  0  0  0  0  0  0  0  0  0
    3.0000   -7.7942    0.0000 C   0  0  0  0  0  0  0  0  0  0  0  0
    3.7500   -6.4952    0.0000 C   0  0  0  0  0  0  0  0  0  0  0  0
    1.5000   -7.7942    0.0000 N   0  0  0  0  0  0  0  0  0  0  0  0
    0.7500   -6.4952    0.0000 C   0  0  0  0  0  0  0  0  0  0  0  0
    1.5000   -5.1962    0.0000 C   0  0  0  0  0  0  0  0  0  0  0  0
    0.7500   -3.8971    0.0000 C   0  0  0  0  0  0  0  0  0  0  0  0
    1.5000   -2.5981    0.0000 N   0  0  0  0  0  0  0  0  0  0  0  0
    3.0000   -2.5981    0.0000 C   0  0  0  0  0  0  0  0  0  0  0  0
    3.7500   -3.8971    0.0000 C   0  0  0  0  0  0  0  0  0  0  0  0
    5.2500   -3.8971    0.0000 C   0  0  0  0  0  0  0  0  0  0  0  0
    6.0000   -2.5981    0.0000 C   0  0  0  0  0  0  0  0  0  0  0  0
    7.5000   -2.5981    0.0000 Cl  0  0  0  0  0  0  0  0  0  0  0  0
    5.2500   -1.2990    0.0000 C   0  0  0  0  0  0  0  0  0  0  0  0
    3.7500   -1.2990    0.0000 C   0  0  0  0  0  0  0  0  0  0  0  0
    0.7500   -1.2990    0.0000 C   0  0  0  0  0  0  0  0  0  0  0  0
    1.5000    0.0000    0.0000 C   0  0  0  0  0  0  0  0  0  0  0  0
    0.7500    1.2990    0.0000 C   0  0  0  0  0  0  0  0  0  0  0  0
   -0.7500    1.2990    0.0000 C   0  0  0  0  0  0  0  0  0  0  0  0
   -1.5000    0.0000    0.0000 C   0  0  0  0  0  0  0  0  0  0  0  0
   -0.7500   -1.2990    0.0000 C   0  0  0  0  0  0  0  0  0  0  0  0
   -1.5000   -2.5981    0.0000 N   0  0  0  0  0  0  0  0  0  0  0  0
   -0.7500   -3.8971    0.0000 C   0  0  0  0  0  0  0  0  0  0  0  0
   -1.5000   -5.1962    0.0000 C   0  0  0  0  0  0  0  0  0  0  0  0
   -0.7500   -6.4952    0.0000 C   0  0  0  0  0  0  0  0  0  0  0  0
   -1.5000   -7.7942    0.0000 N   0  0  0  0  0  0  0  0  0  0  0  0
   -3.0000   -7.7942    0.0000 C   0  0  0  0  0  0  0  0  0  0  0  0
   -3.7500   -6.4952    0.0000 C   0  0  0  0  0  0  0  0  0  0  0  0
   -5.2500   -6.4952    0.0000 C   0  0  0  0  0  0  0  0  0  0  0  0
   -6.0000   -7.7942    0.0000 C   0  0  0  0  0  0  0  0  0  0  0  0
   -7.5000   -7.7942    0.0000 Cl  0  0  0  0  0  0  0  0  0  0  0  0
   -5.2500   -9.0933    0.0000 C   0  0  0  0  0  0  0  0  0  0  0  0
   -3.7500   -9.0933    0.0000 C   0  0  0  0  0  0  0  0  0  0  0  0
  1  2  1  0
  2  3  1  0
  2  4  1  0
  4  5  2  0
  5  6  1  0
  6  7  2  0
  7  8  1  0
  8  9  1  0
  9 10  2  0
 10 11  1  0
 11 12  2  0
 12 13  1  0
 12 14  1  0
 14 15  2  0
  8 16  1  0
 16 17  2  0
 17 18  1  0
 18 19  2  0
 19 20  1  0
 20 21  2  0
 21 22  1  0
 22 23  2  0
 23 24  1  0
 24 25  2  0
 25 26  1  0
 26 27  1  0
 27 28  2  0
 28 29  1  0
 29 30  2  0
 30 31  1  0
 30 32  1  0
 32 33  2  0
 25  5  1  0
 33 27  1  0
 23  7  1  0
 15  9  1  0
 21 16  1  0
M  END
>  <assay_description>  (39) 
Inhibition of human MRP2 overexpressed in Sf9 cell membrane vesicles assessed as uptake of [3H]-estradiol-17beta-D-glucuronide in presence of ATP and GSH measured after 20 mins by membrane vesicle transport assay

>  <molecule_pref_name>  (39) 
CLOFAZIMINE

>  <canonical_smiles>  (39) 
CC(C)/N=c1\cc2n(-c3ccc(Cl)cc3)c3ccccc3nc-2cc1Nc1ccc(Cl)cc1

>  <pchembl_value>  (39) 
4.98

>  <standard_type>  (39) 
IC50

>  <standard_relation>  (39) 
=

>  <standard_value>  (39) 
10400.0

>  <standard_units>  (39) 
nM

>  <target_pref_name>  (39) 
Canalicular multispecific organic anion transporter 1

>  <target_organism>  (39) 
Homo sapiens

$$$$
CHEMBL1908360
     RDKit          2D

 68 71  0  0  0  0  0  0  0  0999 V2000
    9.2437   -7.3954    0.0000 C   0  0  0  0  0  0  0  0  0  0  0  0
    8.4244   -8.6519    0.0000 O   0  0  0  0  0  0  0  0  0  0  0  0
    6.9266   -8.5707    0.0000 C   0  0  0  0  0  0  0  0  0  0  0  0
    6.8454   -7.0729    0.0000 C   0  0  0  0  0  0  0  0  0  0  0  0
    6.4441   -5.6276    0.0000 C   0  0  0  0  0  0  0  0  0  0  0  0
    7.4700   -4.4677    0.0000 C   0  0  0  0  0  0  0  0  0  0  0  0
    7.3617   -2.9716    0.0000 C   0  0  0  0  0  0  0  0  0  0  0  0
    6.0120   -2.3173    0.0000 C   0  0  0  0  0  0  0  0  0  0  0  0
    5.9037   -0.8212    0.0000 C   0  0  0  0  0  0  0  0  0  0  0  0
    4.7704   -3.1591    0.0000 C   0  0  0  0  0  0  0  0  0  0  0  0
    5.2059   -2.3878    0.0000 O   0  0  0  0  0  0  0  0  0  0  0  0
    5.7415   -4.3023    0.0000 O   0  0  0  0  0  0  0  0  0  0  0  0
    3.5763   -2.2513    0.0000 C   0  0  0  0  0  0  0  0  0  0  0  0
    4.3496   -0.9660    0.0000 O   0  0  0  0  0  0  0  0  0  0  0  0
    2.2149   -1.6215    0.0000 C   0  0  0  0  0  0  0  0  0  0  0  0
    2.6939   -0.2000    0.0000 O   0  0  0  0  0  0  0  0  0  0  0  0
    0.7500   -1.2990    0.0000 N   0  0  0  0  0  0  0  0  0  0  0  0
    1.5000    0.0000    0.0000 C   0  0  0  0  0  0  0  0  0  0  0  0
    0.7500    1.2990    0.0000 C   0  0  0  0  0  0  0  0  0  0  0  0
   -0.7500    1.2990    0.0000 C   0  0  0  0  0  0  0  0  0  0  0  0
   -1.5000    0.0000    0.0000 C   0  0  0  0  0  0  0  0  0  0  0  0
   -0.7500   -1.2990    0.0000 C   0  0  0  0  0  0  0  0  0  0  0  0
   -2.2149   -1.6215    0.0000 C   0  0  0  0  0  0  0  0  0  0  0  0
   -2.6939   -0.2000    0.0000 O   0  0  0  0  0  0  0  0  0  0  0  0
   -3.5763   -2.2513    0.0000 O   0  0  0  0  0  0  0  0  0  0  0  0
   -4.7704   -3.1591    0.0000 C   0  0  0  0  0  0  0  0  0  0  0  0
   -5.8020   -2.0701    0.0000 C   0  0  0  0  0  0  0  0  0  0  0  0
   -5.3747   -0.6323    0.0000 C   0  0  0  0  0  0  0  0  0  0  0  0
   -7.2609   -2.4189    0.0000 C   0  0  0  0  0  0  0  0  0  0  0  0
   -8.2924   -1.3300    0.0000 C   0  0  0  0  0  0  0  0  0  0  0  0
   -7.8651    0.1079    0.0000 C   0  0  0  0  0  0  0  0  0  0  0  0
   -8.8966    1.1969    0.0000 C   0  0  0  0  0  0  0  0  0  0  0  0
  -10.3555    0.8480    0.0000 C   0  0  0  0  0  0  0  0  0  0  0  0
  -11.3870    1.9370    0.0000 O   0  0  0  0  0  0  0  0  0  0  0  0
  -10.9597    3.3749    0.0000 C   0  0  0  0  0  0  0  0  0  0  0  0
  -11.9913    4.4639    0.0000 C   0  0  0  0  0  0  0  0  0  0  0  0
  -11.5640    5.9017    0.0000 O   0  0  0  0  0  0  0  0  0  0  0  0
  -10.7828   -0.5898    0.0000 C   0  0  0  0  0  0  0  0  0  0  0  0
  -12.2417   -0.9387    0.0000 O   0  0  0  0  0  0  0  0  0  0  0  0
  -12.6690   -2.3765    0.0000 C   0  0  0  0  0  0  0  0  0  0  0  0
   -9.7513   -1.6788    0.0000 C   0  0  0  0  0  0  0  0  0  0  0  0
   -5.7415   -4.3023    0.0000 C   0  0  0  0  0  0  0  0  0  0  0  0
   -6.4441   -5.6276    0.0000 C   0  0  0  0  0  0  0  0  0  0  0  0
   -7.8376   -5.0724    0.0000 O   0  0  0  0  0  0  0  0  0  0  0  0
   -6.8454   -7.0729    0.0000 C   0  0  0  0  0  0  0  0  0  0  0  0
   -8.3257   -6.8303    0.0000 C   0  0  0  0  0  0  0  0  0  0  0  0
   -6.9266   -8.5707    0.0000 C   0  0  0  0  0  0  0  0  0  0  0  0
   -6.6840  -10.0510    0.0000 C   0  0  0  0  0  0  0  0  0  0  0  0
   -8.1293  -10.4523    0.0000 C   0  0  0  0  0  0  0  0  0  0  0  0
   -6.1287  -11.4444    0.0000 C   0  0  0  0  0  0  0  0  0  0  0  0
   -7.4540  -12.1470    0.0000 O   0  0  0  0  0  0  0  0  0  0  0  0
   -5.2870  -12.6860    0.0000 C   0  0  0  0  0  0  0  0  0  0  0  0
   -6.4302  -13.6570    0.0000 O   0  0  0  0  0  0  0  0  0  0  0  0
   -6.1609  -15.1327    0.0000 C   0  0  0  0  0  0  0  0  0  0  0  0
   -4.1980  -13.7175    0.0000 C   0  0  0  0  0  0  0  0  0  0  0  0
   -5.1057  -14.9117    0.0000 O   0  0  0  0  0  0  0  0  0  0  0  0
   -2.9127  -14.4908    0.0000 C   0  0  0  0  0  0  0  0  0  0  0  0
   -3.5425  -15.8522    0.0000 C   0  0  0  0  0  0  0  0  0  0  0  0
   -1.4912  -14.9698    0.0000 C   0  0  0  0  0  0  0  0  0  0  0  0
    0.0000  -15.1320    0.0000 C   0  0  0  0  0  0  0  0  0  0  0  0
    0.0000  -16.6320    0.0000 C   0  0  0  0  0  0  0  0  0  0  0  0
    1.4912  -14.9698    0.0000 C   0  0  0  0  0  0  0  0  0  0  0  0
    2.9127  -14.4908    0.0000 C   0  0  0  0  0  0  0  0  0  0  0  0
    4.1980  -13.7175    0.0000 C   0  0  0  0  0  0  0  0  0  0  0  0
    5.2870  -12.6860    0.0000 C   0  0  0  0  0  0  0  0  0  0  0  0
    6.1287  -11.4444    0.0000 C   0  0  0  0  0  0  0  0  0  0  0  0
    6.6840  -10.0510    0.0000 C   0  0  0  0  0  0  0  0  0  0  0  0
    8.1293  -10.4523    0.0000 C   0  0  0  0  0  0  0  0  0  0  0  0
  1  2  1  0
  3  2  1  6
  3  4  1  0
  5  4  1  1
  5  6  1  0
  6  7  1  0
  7  8  1  0
  8  9  1  6
  8 10  1  0
 10 11  1  6
 10 12  1  0
 10 13  1  0
 13 14  2  0
 13 15  1  0
 15 16  2  0
 15 17  1  0
 17 18  1  0
 18 19  1  0
 19 20  1  0
 20 21  1  0
 22 21  1  6
 22 23  1  0
 23 24  2  0
 23 25  1  0
 25 26  1  0
 26 27  1  0
 27 28  1  1
 27 29  1  0
 30 29  1  1
 30 31  1  0
 31 32  1  0
 32 33  1  0
 33 34  1  6
 34 35  1  0
 35 36  1  0
 36 37  1  0
 33 38  1  0
 38 39  1  1
 39 40  1  0
 38 41  1  0
 26 42  1  1
 42 43  1  0
 43 44  2  0
 43 45  1  0
 45 46  1  1
 45 47  1  0
 47 48  2  0
 48 49  1  0
 48 50  1  0
 50 51  1  6
 50 52  1  0
 52 53  1  6
 53 54  1  0
 52 55  1  0
 55 56  2  0
 55 57  1  0
 57 58  1  1
 57 59  1  0
 59 60  1  0
 60 61  1  1
 60 62  1  0
 62 63  2  0
 63 64  1  0
 64 65  2  0
 65 66  1  0
 66 67  2  0
 67 68  1  0
 67  3  1  0
 12  5  1  0
 22 17  1  0
 41 30  1  0
M  END
>  <assay_description>  (40) 
Inhibition of human MRP2 overexpressed in Sf9 cell membrane vesicles assessed as uptake of [3H]-estradiol-17beta-D-glucuronide in presence of ATP and GSH measured after 20 mins by membrane vesicle transport assay

>  <molecule_pref_name>  (40) 
EVEROLIMUS

>  <canonical_smiles>  (40) 
CO[C@H]1C[C@@H]2CC[C@@H](C)[C@@](O)(O2)C(=O)C(=O)N2CCCC[C@H]2C(=O)O[C@H]([C@H](C)C[C@@H]2CC[C@@H](OCCO)[C@H](OC)C2)CC(=O)[C@H](C)/C=C(\C)[C@@H](O)[C@@H](OC)C(=O)[C@H](C)C[C@H](C)/C=C/C=C/C=C/1C

>  <pchembl_value>  (40) 
4.95

>  <standard_type>  (40) 
IC50

>  <standard_relation>  (40) 
=

>  <standard_value>  (40) 
11300.0

>  <standard_units>  (40) 
nM

>  <target_pref_name>  (40) 
Canalicular multispecific organic anion transporter 1

>  <target_organism>  (40) 
Homo sapiens

$$$$
CHEMBL56337
     RDKit          2D

 21 22  0  0  0  0  0  0  0  0999 V2000
   -0.7500   -3.8971    0.0000 C   0  0  0  0  0  0  0  0  0  0  0  0
    0.7500   -3.8971    0.0000 C   0  0  0  0  0  0  0  0  0  0  0  0
    1.5000   -5.1962    0.0000 C   0  0  0  0  0  0  0  0  0  0  0  0
    0.7500   -6.4952    0.0000 C   0  0  0  0  0  0  0  0  0  0  0  0
   -0.7418   -6.6520    0.0000 S   0  0  0  0  0  0  0  0  0  0  0  0
   -1.0537   -8.1192    0.0000 C   0  0  0  0  0  0  0  0  0  0  0  0
   -2.4240   -8.7293    0.0000 S   0  0  0  0  0  0  0  0  0  0  0  0
    0.2454   -8.8692    0.0000 N   0  0  0  0  0  0  0  0  0  0  0  0
    0.4022  -10.3610    0.0000 C   0  0  0  0  0  0  0  0  0  0  0  0
    1.7725  -10.9711    0.0000 C   0  0  0  0  0  0  0  0  0  0  0  0
    2.9860  -10.0894    0.0000 O   0  0  0  0  0  0  0  0  0  0  0  0
    1.9293  -12.4629    0.0000 O   0  0  0  0  0  0  0  0  0  0  0  0
    1.3601   -7.8655    0.0000 C   0  0  0  0  0  0  0  0  0  0  0  0
    2.8273   -8.1774    0.0000 O   0  0  0  0  0  0  0  0  0  0  0  0
    1.5000   -2.5981    0.0000 C   0  0  0  0  0  0  0  0  0  0  0  0
    0.7500   -1.2990    0.0000 C   0  0  0  0  0  0  0  0  0  0  0  0
    1.5000    0.0000    0.0000 C   0  0  0  0  0  0  0  0  0  0  0  0
    0.7500    1.2990    0.0000 C   0  0  0  0  0  0  0  0  0  0  0  0
   -0.7500    1.2990    0.0000 C   0  0  0  0  0  0  0  0  0  0  0  0
   -1.5000    0.0000    0.0000 C   0  0  0  0  0  0  0  0  0  0  0  0
   -0.7500   -1.2990    0.0000 C   0  0  0  0  0  0  0  0  0  0  0  0
  1  2  1  0
  2  3  1  0
  3  4  2  0
  4  5  1  0
  5  6  1  0
  6  7  2  0
  6  8  1  0
  8  9  1  0
  9 10  1  0
 10 11  2  0
 10 12  1  0
  8 13  1  0
 13 14  2  0
  2 15  2  0
 15 16  1  0
 16 17  2  0
 17 18  1  0
 18 19  2  0
 19 20  1  0
 20 21  2  0
 13  4  1  0
 21 16  1  0
M  END
>  <assay_description>  (41) 
Inhibition of human MRP2 overexpressed in Sf9 cell membrane vesicles assessed as uptake of [3H]-estradiol-17beta-D-glucuronide in presence of ATP and GSH measured after 20 mins by membrane vesicle transport assay

>  <molecule_pref_name>  (41) 
EPALRESTAT

>  <canonical_smiles>  (41) 
CC(/C=C1\SC(=S)N(CC(=O)O)C1=O)=C\c1ccccc1

>  <pchembl_value>  (41) 
4.07

>  <standard_type>  (41) 
IC50

>  <standard_relation>  (41) 
=

>  <standard_value>  (41) 
84400.0

>  <standard_units>  (41) 
nM

>  <target_pref_name>  (41) 
Canalicular multispecific organic anion transporter 1

>  <target_organism>  (41) 
Homo sapiens

$$$$
CHEMBL603
     RDKit          2D

 41 45  0  0  0  0  0  0  0  0999 V2000
    0.7040   -6.2002    0.0000 C   0  0  0  0  0  0  0  0  0  0  0  0
   -0.4107   -5.1965    0.0000 O   0  0  0  0  0  0  0  0  0  0  0  0
   -1.8373   -5.6601    0.0000 C   0  0  0  0  0  0  0  0  0  0  0  0
   -2.1491   -7.1273    0.0000 C   0  0  0  0  0  0  0  0  0  0  0  0
   -3.5757   -7.5908    0.0000 C   0  0  0  0  0  0  0  0  0  0  0  0
   -3.8876   -9.0580    0.0000 C   0  0  0  0  0  0  0  0  0  0  0  0
   -2.7729  -10.0617    0.0000 O   0  0  0  0  0  0  0  0  0  0  0  0
   -5.3142   -9.5216    0.0000 N   0  0  0  0  0  0  0  0  0  0  0  0
   -5.6260  -10.9888    0.0000 S   0  0  0  0  0  0  0  0  0  0  0  0
   -4.1588  -11.3006    0.0000 O   0  0  0  0  0  0  0  0  0  0  0  0
   -7.0933  -10.6769    0.0000 O   0  0  0  0  0  0  0  0  0  0  0  0
   -5.9379  -12.4560    0.0000 C   0  0  0  0  0  0  0  0  0  0  0  0
   -7.3645  -12.9195    0.0000 C   0  0  0  0  0  0  0  0  0  0  0  0
   -7.6764  -14.3867    0.0000 C   0  0  0  0  0  0  0  0  0  0  0  0
   -6.5616  -15.3904    0.0000 C   0  0  0  0  0  0  0  0  0  0  0  0
   -5.1351  -14.9269    0.0000 C   0  0  0  0  0  0  0  0  0  0  0  0
   -4.8232  -13.4597    0.0000 C   0  0  0  0  0  0  0  0  0  0  0  0
   -3.3966  -12.9962    0.0000 C   0  0  0  0  0  0  0  0  0  0  0  0
   -4.6904   -6.5871    0.0000 C   0  0  0  0  0  0  0  0  0  0  0  0
   -4.3786   -5.1199    0.0000 C   0  0  0  0  0  0  0  0  0  0  0  0
   -2.9520   -4.6564    0.0000 C   0  0  0  0  0  0  0  0  0  0  0  0
   -2.6401   -3.1891    0.0000 C   0  0  0  0  0  0  0  0  0  0  0  0
   -1.2135   -2.7256    0.0000 C   0  0  0  0  0  0  0  0  0  0  0  0
   -0.0000   -3.6073    0.0000 C   0  0  0  0  0  0  0  0  0  0  0  0
    1.2135   -2.7256    0.0000 N   0  0  0  0  0  0  0  0  0  0  0  0
    2.6401   -3.1891    0.0000 C   0  0  0  0  0  0  0  0  0  0  0  0
    0.7500   -1.2990    0.0000 C   0  0  0  0  0  0  0  0  0  0  0  0
    1.5000    0.0000    0.0000 C   0  0  0  0  0  0  0  0  0  0  0  0
    0.7500    1.2990    0.0000 C   0  0  0  0  0  0  0  0  0  0  0  0
   -0.7500    1.2990    0.0000 C   0  0  0  0  0  0  0  0  0  0  0  0
   -1.5000    2.5981    0.0000 N   0  0  0  0  0  0  0  0  0  0  0  0
   -0.7500    3.8971    0.0000 C   0  0  0  0  0  0  0  0  0  0  0  0
    0.7500    3.8971    0.0000 O   0  0  0  0  0  0  0  0  0  0  0  0
   -1.5000    5.1962    0.0000 O   0  0  0  0  0  0  0  0  0  0  0  0
   -0.7500    6.4952    0.0000 C   0  0  0  0  0  0  0  0  0  0  0  0
   -1.3601    7.8655    0.0000 C   0  0  0  0  0  0  0  0  0  0  0  0
   -0.2454    8.8692    0.0000 C   0  0  0  0  0  0  0  0  0  0  0  0
    1.0537    8.1192    0.0000 C   0  0  0  0  0  0  0  0  0  0  0  0
    0.7418    6.6520    0.0000 C   0  0  0  0  0  0  0  0  0  0  0  0
   -1.5000    0.0000    0.0000 C   0  0  0  0  0  0  0  0  0  0  0  0
   -0.7500   -1.2990    0.0000 C   0  0  0  0  0  0  0  0  0  0  0  0
  1  2  1  0
  2  3  1  0
  3  4  2  0
  4  5  1  0
  5  6  1  0
  6  7  2  0
  6  8  1  0
  8  9  1  0
  9 10  2  0
  9 11  2  0
  9 12  1  0
 12 13  2  0
 13 14  1  0
 14 15  2  0
 15 16  1  0
 16 17  2  0
 17 18  1  0
  5 19  2  0
 19 20  1  0
 20 21  2  0
 21 22  1  0
 22 23  1  0
 23 24  2  0
 24 25  1  0
 25 26  1  0
 25 27  1  0
 27 28  2  0
 28 29  1  0
 29 30  2  0
 30 31  1  0
 31 32  1  0
 32 33  2  0
 32 34  1  0
 34 35  1  0
 35 36  1  0
 36 37  1  0
 37 38  1  0
 38 39  1  0
 30 40  1  0
 40 41  2  0
 21  3  1  0
 41 23  1  0
 17 12  1  0
 41 27  1  0
 39 35  1  0
M  END
>  <assay_description>  (42) 
Inhibition of human MRP2 overexpressed in Sf9 cell membrane vesicles assessed as uptake of [3H]-estradiol-17beta-D-glucuronide in presence of ATP and GSH measured after 20 mins by membrane vesicle transport assay

>  <molecule_pref_name>  (42) 
ZAFIRLUKAST

>  <canonical_smiles>  (42) 
COc1cc(C(=O)NS(=O)(=O)c2ccccc2C)ccc1Cc1cn(C)c2ccc(NC(=O)OC3CCCC3)cc12

>  <pchembl_value>  (42) 
4.23

>  <standard_type>  (42) 
IC50

>  <standard_relation>  (42) 
=

>  <standard_value>  (42) 
58800.0

>  <standard_units>  (42) 
nM

>  <target_pref_name>  (42) 
Canalicular multispecific organic anion transporter 1

>  <target_organism>  (42) 
Homo sapiens

$$$$
CHEMBL1201182
     RDKit          2D

 73 76  0  0  0  0  0  0  0  0999 V2000
    9.2437   -7.3954    0.0000 C   0  0  0  0  0  0  0  0  0  0  0  0
    8.4244   -8.6519    0.0000 O   0  0  0  0  0  0  0  0  0  0  0  0
    6.9266   -8.5707    0.0000 C   0  0  0  0  0  0  0  0  0  0  0  0
    6.8454   -7.0729    0.0000 C   0  0  0  0  0  0  0  0  0  0  0  0
    6.4441   -5.6276    0.0000 C   0  0  0  0  0  0  0  0  0  0  0  0
    7.4700   -4.4677    0.0000 C   0  0  0  0  0  0  0  0  0  0  0  0
    7.3617   -2.9716    0.0000 C   0  0  0  0  0  0  0  0  0  0  0  0
    6.0120   -2.3173    0.0000 C   0  0  0  0  0  0  0  0  0  0  0  0
    5.9037   -0.8212    0.0000 C   0  0  0  0  0  0  0  0  0  0  0  0
    4.7704   -3.1591    0.0000 C   0  0  0  0  0  0  0  0  0  0  0  0
    5.2059   -2.3878    0.0000 O   0  0  0  0  0  0  0  0  0  0  0  0
    5.7415   -4.3023    0.0000 O   0  0  0  0  0  0  0  0  0  0  0  0
    3.5763   -2.2513    0.0000 C   0  0  0  0  0  0  0  0  0  0  0  0
    4.3496   -0.9660    0.0000 O   0  0  0  0  0  0  0  0  0  0  0  0
    2.2149   -1.6215    0.0000 C   0  0  0  0  0  0  0  0  0  0  0  0
    2.6939   -0.2000    0.0000 O   0  0  0  0  0  0  0  0  0  0  0  0
    0.7500   -1.2990    0.0000 N   0  0  0  0  0  0  0  0  0  0  0  0
    1.5000    0.0000    0.0000 C   0  0  0  0  0  0  0  0  0  0  0  0
    0.7500    1.2990    0.0000 C   0  0  0  0  0  0  0  0  0  0  0  0
   -0.7500    1.2990    0.0000 C   0  0  0  0  0  0  0  0  0  0  0  0
   -1.5000    0.0000    0.0000 C   0  0  0  0  0  0  0  0  0  0  0  0
   -0.7500   -1.2990    0.0000 C   0  0  0  0  0  0  0  0  0  0  0  0
   -2.2149   -1.6215    0.0000 C   0  0  0  0  0  0  0  0  0  0  0  0
   -2.6939   -0.2000    0.0000 O   0  0  0  0  0  0  0  0  0  0  0  0
   -3.5763   -2.2513    0.0000 O   0  0  0  0  0  0  0  0  0  0  0  0
   -4.7704   -3.1591    0.0000 C   0  0  0  0  0  0  0  0  0  0  0  0
   -5.8020   -2.0701    0.0000 C   0  0  0  0  0  0  0  0  0  0  0  0
   -5.3747   -0.6323    0.0000 C   0  0  0  0  0  0  0  0  0  0  0  0
   -7.2609   -2.4189    0.0000 C   0  0  0  0  0  0  0  0  0  0  0  0
   -8.2924   -1.3300    0.0000 C   0  0  0  0  0  0  0  0  0  0  0  0
   -7.8651    0.1079    0.0000 C   0  0  0  0  0  0  0  0  0  0  0  0
   -8.8966    1.1969    0.0000 C   0  0  0  0  0  0  0  0  0  0  0  0
  -10.3555    0.8480    0.0000 C   0  0  0  0  0  0  0  0  0  0  0  0
  -11.3870    1.9370    0.0000 O   0  0  0  0  0  0  0  0  0  0  0  0
  -10.9597    3.3749    0.0000 C   0  0  0  0  0  0  0  0  0  0  0  0
   -9.5009    3.7237    0.0000 O   0  0  0  0  0  0  0  0  0  0  0  0
  -11.9913    4.4639    0.0000 C   0  0  0  0  0  0  0  0  0  0  0  0
  -10.9023    5.4954    0.0000 C   0  0  0  0  0  0  0  0  0  0  0  0
  -13.0803    3.4323    0.0000 C   0  0  0  0  0  0  0  0  0  0  0  0
  -14.5181    3.8596    0.0000 O   0  0  0  0  0  0  0  0  0  0  0  0
  -13.0228    5.5529    0.0000 C   0  0  0  0  0  0  0  0  0  0  0  0
  -14.4817    5.2040    0.0000 O   0  0  0  0  0  0  0  0  0  0  0  0
  -10.7828   -0.5898    0.0000 C   0  0  0  0  0  0  0  0  0  0  0  0
  -12.2417   -0.9387    0.0000 O   0  0  0  0  0  0  0  0  0  0  0  0
  -12.6690   -2.3765    0.0000 C   0  0  0  0  0  0  0  0  0  0  0  0
   -9.7513   -1.6788    0.0000 C   0  0  0  0  0  0  0  0  0  0  0  0
   -5.7415   -4.3023    0.0000 C   0  0  0  0  0  0  0  0  0  0  0  0
   -6.4441   -5.6276    0.0000 C   0  0  0  0  0  0  0  0  0  0  0  0
   -7.8376   -5.0724    0.0000 O   0  0  0  0  0  0  0  0  0  0  0  0
   -6.8454   -7.0729    0.0000 C   0  0  0  0  0  0  0  0  0  0  0  0
   -8.3257   -6.8303    0.0000 C   0  0  0  0  0  0  0  0  0  0  0  0
   -6.9266   -8.5707    0.0000 C   0  0  0  0  0  0  0  0  0  0  0  0
   -6.6840  -10.0510    0.0000 C   0  0  0  0  0  0  0  0  0  0  0  0
   -8.1293  -10.4523    0.0000 C   0  0  0  0  0  0  0  0  0  0  0  0
   -6.1287  -11.4444    0.0000 C   0  0  0  0  0  0  0  0  0  0  0  0
   -7.4540  -12.1470    0.0000 O   0  0  0  0  0  0  0  0  0  0  0  0
   -5.2870  -12.6860    0.0000 C   0  0  0  0  0  0  0  0  0  0  0  0
   -6.4302  -13.6570    0.0000 O   0  0  0  0  0  0  0  0  0  0  0  0
   -6.1609  -15.1327    0.0000 C   0  0  0  0  0  0  0  0  0  0  0  0
   -4.1980  -13.7175    0.0000 C   0  0  0  0  0  0  0  0  0  0  0  0
   -5.1057  -14.9117    0.0000 O   0  0  0  0  0  0  0  0  0  0  0  0
   -2.9127  -14.4908    0.0000 C   0  0  0  0  0  0  0  0  0  0  0  0
   -3.5425  -15.8522    0.0000 C   0  0  0  0  0  0  0  0  0  0  0  0
   -1.4912  -14.9698    0.0000 C   0  0  0  0  0  0  0  0  0  0  0  0
    0.0000  -15.1320    0.0000 C   0  0  0  0  0  0  0  0  0  0  0  0
    0.0000  -16.6320    0.0000 C   0  0  0  0  0  0  0  0  0  0  0  0
    1.4912  -14.9698    0.0000 C   0  0  0  0  0  0  0  0  0  0  0  0
    2.9127  -14.4908    0.0000 C   0  0  0  0  0  0  0  0  0  0  0  0
    4.1980  -13.7175    0.0000 C   0  0  0  0  0  0  0  0  0  0  0  0
    5.2870  -12.6860    0.0000 C   0  0  0  0  0  0  0  0  0  0  0  0
    6.1287  -11.4444    0.0000 C   0  0  0  0  0  0  0  0  0  0  0  0
    6.6840  -10.0510    0.0000 C   0  0  0  0  0  0  0  0  0  0  0  0
    8.1293  -10.4523    0.0000 C   0  0  0  0  0  0  0  0  0  0  0  0
  1  2  1  0
  3  2  1  6
  3  4  1  0
  5  4  1  1
  5  6  1  0
  6  7  1  0
  7  8  1  0
  8  9  1  6
  8 10  1  0
 10 11  1  6
 10 12  1  0
 10 13  1  0
 13 14  2  0
 13 15  1  0
 15 16  2  0
 15 17  1  0
 17 18  1  0
 18 19  1  0
 19 20  1  0
 20 21  1  0
 22 21  1  6
 22 23  1  0
 23 24  2  0
 23 25  1  0
 25 26  1  0
 26 27  1  0
 27 28  1  1
 27 29  1  0
 30 29  1  1
 30 31  1  0
 31 32  1  0
 32 33  1  0
 33 34  1  6
 34 35  1  0
 35 36  2  0
 35 37  1  0
 37 38  1  0
 37 39  1  0
 39 40  1  0
 37 41  1  0
 41 42  1  0
 33 43  1  0
 43 44  1  1
 44 45  1  0
 43 46  1  0
 26 47  1  1
 47 48  1  0
 48 49  2  0
 48 50  1  0
 50 51  1  1
 50 52  1  0
 52 53  2  0
 53 54  1  0
 53 55  1  0
 55 56  1  6
 55 57  1  0
 57 58  1  6
 58 59  1  0
 57 60  1  0
 60 61  2  0
 60 62  1  0
 62 63  1  1
 62 64  1  0
 64 65  1  0
 65 66  1  1
 65 67  1  0
 67 68  2  0
 68 69  1  0
 69 70  2  0
 70 71  1  0
 71 72  2  0
 72 73  1  0
 72  3  1  0
 12  5  1  0
 22 17  1  0
 46 30  1  0
M  END
>  <assay_description>  (43) 
Inhibition of human MRP2 overexpressed in Sf9 cell membrane vesicles assessed as uptake of [3H]-estradiol-17beta-D-glucuronide in presence of ATP and GSH measured after 20 mins by membrane vesicle transport assay

>  <molecule_pref_name>  (43) 
TEMSIROLIMUS

>  <canonical_smiles>  (43) 
CO[C@H]1C[C@@H]2CC[C@@H](C)[C@@](O)(O2)C(=O)C(=O)N2CCCC[C@H]2C(=O)O[C@H]([C@H](C)C[C@@H]2CC[C@@H](OC(=O)C(C)(CO)CO)[C@H](OC)C2)CC(=O)[C@H](C)/C=C(\C)[C@@H](O)[C@@H](OC)C(=O)[C@H](C)C[C@H](C)/C=C/C=C/C=C/1C

>  <pchembl_value>  (43) 
4.75

>  <standard_type>  (43) 
IC50

>  <standard_relation>  (43) 
=

>  <standard_value>  (43) 
17600.0

>  <standard_units>  (43) 
nM

>  <target_pref_name>  (43) 
Canalicular multispecific organic anion transporter 1

>  <target_organism>  (43) 
Homo sapiens

$$$$
CHEMBL388590
     RDKit          2D

 22 24  0  0  0  0  0  0  0  0999 V2000
    1.2990   -5.8573    0.0000 C   0  0  0  0  0  0  0  0  0  0  0  0
   -0.0000   -5.1073    0.0000 C   0  0  0  0  0  0  0  0  0  0  0  0
   -0.0000   -3.6073    0.0000 C   0  0  0  0  0  0  0  0  0  0  0  0
    1.2135   -2.7256    0.0000 O   0  0  0  0  0  0  0  0  0  0  0  0
    0.7500   -1.2990    0.0000 C   0  0  0  0  0  0  0  0  0  0  0  0
    1.5000    0.0000    0.0000 C   0  0  0  0  0  0  0  0  0  0  0  0
    0.7500    1.2990    0.0000 C   0  0  0  0  0  0  0  0  0  0  0  0
   -0.7500    1.2990    0.0000 C   0  0  0  0  0  0  0  0  0  0  0  0
   -1.5000    0.0000    0.0000 C   0  0  0  0  0  0  0  0  0  0  0  0
   -0.7500   -1.2990    0.0000 C   0  0  0  0  0  0  0  0  0  0  0  0
   -1.2135   -2.7256    0.0000 C   0  0  0  0  0  0  0  0  0  0  0  0
   -2.6401   -3.1891    0.0000 C   0  0  0  0  0  0  0  0  0  0  0  0
   -3.7548   -2.1855    0.0000 O   0  0  0  0  0  0  0  0  0  0  0  0
   -2.9520   -4.6564    0.0000 C   0  0  0  0  0  0  0  0  0  0  0  0
   -4.3786   -5.1199    0.0000 C   0  0  0  0  0  0  0  0  0  0  0  0
   -4.6904   -6.5871    0.0000 C   0  0  0  0  0  0  0  0  0  0  0  0
   -6.1170   -7.0506    0.0000 Br  0  0  0  0  0  0  0  0  0  0  0  0
   -3.5757   -7.5908    0.0000 C   0  0  0  0  0  0  0  0  0  0  0  0
   -3.8876   -9.0580    0.0000 O   0  0  0  0  0  0  0  0  0  0  0  0
   -2.1491   -7.1273    0.0000 C   0  0  0  0  0  0  0  0  0  0  0  0
   -1.0344   -8.1310    0.0000 Br  0  0  0  0  0  0  0  0  0  0  0  0
   -1.8373   -5.6601    0.0000 C   0  0  0  0  0  0  0  0  0  0  0  0
  1  2  1  0
  2  3  1  0
  3  4  1  0
  4  5  1  0
  5  6  2  0
  6  7  1  0
  7  8  2  0
  8  9  1  0
  9 10  2  0
 10 11  1  0
 11 12  1  0
 12 13  2  0
 12 14  1  0
 14 15  2  0
 15 16  1  0
 16 17  1  0
 16 18  2  0
 18 19  1  0
 18 20  1  0
 20 21  1  0
 20 22  2  0
 11  3  2  0
 22 14  1  0
 10  5  1  0
M  END
>  <assay_description>  (44) 
Inhibition of human MRP2 overexpressed in Sf9 cell membrane vesicles assessed as uptake of [3H]-estradiol-17beta-D-glucuronide in presence of ATP and GSH measured after 20 mins by membrane vesicle transport assay

>  <molecule_pref_name>  (44) 
BENZBROMARONE

>  <canonical_smiles>  (44) 
CCc1oc2ccccc2c1C(=O)c1cc(Br)c(O)c(Br)c1

>  <pchembl_value>  (44) 
4.38

>  <standard_type>  (44) 
IC50

>  <standard_relation>  (44) 
=

>  <standard_value>  (44) 
41600.0

>  <standard_units>  (44) 
nM

>  <target_pref_name>  (44) 
Canalicular multispecific organic anion transporter 1

>  <target_organism>  (44) 
Homo sapiens

$$$$
CHEMBL374478
     RDKit          2D

 59 63  0  0  0  0  0  0  0  0999 V2000
    0.4940    8.3646    0.0000 C   0  0  0  0  0  0  0  0  0  0  0  0
   -1.0057    8.3332    0.0000 O   0  0  0  0  0  0  0  0  0  0  0  0
   -1.7283    7.0188    0.0000 C   0  0  0  0  0  0  0  0  0  0  0  0
   -0.5195    6.1307    0.0000 C   0  0  0  0  0  0  0  0  0  0  0  0
    0.4184    4.9601    0.0000 C   0  0  0  0  0  0  0  0  0  0  0  0
    1.0212    3.5866    0.0000 O   0  0  0  0  0  0  0  0  0  0  0  0
    0.3943    1.2135    0.0000 C   0  0  0  0  0  0  0  0  0  0  0  0
    0.8578    2.6401    0.0000 C   0  0  0  0  0  0  0  0  0  0  0  0
    1.2760    0.0000    0.0000 O   0  0  0  0  0  0  0  0  0  0  0  0
    0.3943   -1.2135    0.0000 C   0  0  0  0  0  0  0  0  0  0  0  0
    0.7062   -2.6807    0.0000 C   0  0  0  0  0  0  0  0  0  0  0  0
    2.1328   -3.1443    0.0000 C   0  0  0  0  0  0  0  0  0  0  0  0
   -0.4086   -3.6844    0.0000 C   0  0  0  0  0  0  0  0  0  0  0  0
   -0.0967   -5.1517    0.0000 O   0  0  0  0  0  0  0  0  0  0  0  0
   -1.8351   -3.2209    0.0000 C   0  0  0  0  0  0  0  0  0  0  0  0
   -2.9499   -4.2246    0.0000 C   0  0  0  0  0  0  0  0  0  0  0  0
   -2.6380   -5.6918    0.0000 O   0  0  0  0  0  0  0  0  0  0  0  0
   -4.3764   -3.7611    0.0000 C   0  0  0  0  0  0  0  0  0  0  0  0
   -4.6883   -2.2939    0.0000 C   0  0  0  0  0  0  0  0  0  0  0  0
   -6.1149   -1.8303    0.0000 C   0  0  0  0  0  0  0  0  0  0  0  0
   -6.4268   -0.3631    0.0000 N   0  0  0  0  0  0  0  0  0  0  0  0
   -7.8533    0.1004    0.0000 N   0  0  0  0  0  0  0  0  0  0  0  0
   -8.1652    1.5676    0.0000 C   0  0  0  0  0  0  0  0  0  0  0  0
   -9.5918    2.0312    0.0000 C   0  0  0  0  0  0  0  0  0  0  0  0
  -10.7065    1.0275    0.0000 N   0  0  0  0  0  0  0  0  0  0  0  0
  -12.1331    1.4910    0.0000 C   0  0  0  0  0  0  0  0  0  0  0  0
  -10.3946   -0.4398    0.0000 C   0  0  0  0  0  0  0  0  0  0  0  0
   -8.9681   -0.9033    0.0000 C   0  0  0  0  0  0  0  0  0  0  0  0
   -3.5736   -1.2902    0.0000 C   0  0  0  0  0  0  0  0  0  0  0  0
   -3.8855    0.1771    0.0000 O   0  0  0  0  0  0  0  0  0  0  0  0
   -2.1470   -1.7537    0.0000 C   0  0  0  0  0  0  0  0  0  0  0  0
   -1.0323   -0.7500    0.0000 C   0  0  0  0  0  0  0  0  0  0  0  0
   -1.0323    0.7500    0.0000 C   0  0  0  0  0  0  0  0  0  0  0  0
   -2.2458    1.6317    0.0000 O   0  0  0  0  0  0  0  0  0  0  0  0
   -5.8674   -3.5964    0.0000 N   0  0  0  0  0  0  0  0  0  0  0  0
   -7.2649   -3.0515    0.0000 C   0  0  0  0  0  0  0  0  0  0  0  0
   -7.9876   -4.3660    0.0000 O   0  0  0  0  0  0  0  0  0  0  0  0
   -8.4738   -2.1635    0.0000 C   0  0  0  0  0  0  0  0  0  0  0  0
   -9.5120   -3.2461    0.0000 C   0  0  0  0  0  0  0  0  0  0  0  0
   -9.4116   -0.9928    0.0000 C   0  0  0  0  0  0  0  0  0  0  0  0
  -10.0145    0.3807    0.0000 C   0  0  0  0  0  0  0  0  0  0  0  0
  -10.2413    1.8634    0.0000 C   0  0  0  0  0  0  0  0  0  0  0  0
  -10.0767    3.3544    0.0000 C   0  0  0  0  0  0  0  0  0  0  0  0
  -11.5334    3.7122    0.0000 C   0  0  0  0  0  0  0  0  0  0  0  0
   -9.5318    4.7519    0.0000 C   0  0  0  0  0  0  0  0  0  0  0  0
  -10.8462    5.4746    0.0000 O   0  0  0  0  0  0  0  0  0  0  0  0
   -8.6437    5.9608    0.0000 C   0  0  0  0  0  0  0  0  0  0  0  0
   -9.7263    6.9990    0.0000 C   0  0  0  0  0  0  0  0  0  0  0  0
   -7.4731    6.8986    0.0000 C   0  0  0  0  0  0  0  0  0  0  0  0
   -8.2501    8.1817    0.0000 O   0  0  0  0  0  0  0  0  0  0  0  0
   -6.0995    7.5015    0.0000 C   0  0  0  0  0  0  0  0  0  0  0  0
   -6.5180    8.9419    0.0000 C   0  0  0  0  0  0  0  0  0  0  0  0
   -4.6168    7.7283    0.0000 C   0  0  0  0  0  0  0  0  0  0  0  0
   -4.6482    9.2280    0.0000 O   0  0  0  0  0  0  0  0  0  0  0  0
   -3.3651   10.0050    0.0000 C   0  0  0  0  0  0  0  0  0  0  0  0
   -3.3965   11.5047    0.0000 C   0  0  0  0  0  0  0  0  0  0  0  0
   -1.9724    9.4480    0.0000 O   0  0  0  0  0  0  0  0  0  0  0  0
   -3.1259    7.5637    0.0000 C   0  0  0  0  0  0  0  0  0  0  0  0
   -2.5931    8.9659    0.0000 C   0  0  0  0  0  0  0  0  0  0  0  0
  1  2  1  0
  3  2  1  1
  3  4  1  0
  4  5  2  0
  5  6  1  0
  6  7  1  0
  7  8  1  6
  7  9  1  0
  9 10  1  0
 10 11  2  0
 11 12  1  0
 11 13  1  0
 13 14  1  0
 13 15  2  0
 15 16  1  0
 16 17  1  0
 16 18  2  0
 18 19  1  0
 19 20  1  0
 20 21  2  0
 21 22  1  0
 22 23  1  0
 23 24  1  0
 24 25  1  0
 25 26  1  0
 25 27  1  0
 27 28  1  0
 19 29  2  0
 29 30  1  0
 29 31  1  0
 31 32  2  0
 32 33  1  0
 33 34  2  0
 18 35  1  0
 35 36  1  0
 36 37  2  0
 36 38  1  0
 38 39  1  0
 38 40  2  0
 40 41  1  0
 41 42  2  0
 42 43  1  0
 43 44  1  6
 43 45  1  0
 45 46  1  6
 45 47  1  0
 47 48  1  1
 47 49  1  0
 49 50  1  1
 49 51  1  0
 51 52  1  1
 51 53  1  0
 53 54  1  6
 54 55  1  0
 55 56  1  0
 55 57  2  0
 53 58  1  0
 58 59  1  6
 58  3  1  0
 33  7  1  0
 32 10  1  0
 31 15  1  0
 28 22  1  0
M  END
>  <assay_description>  (45) 
Inhibition of human MRP2 overexpressed in Sf9 cell membrane vesicles assessed as uptake of [3H]-estradiol-17beta-D-glucuronide in presence of ATP and GSH measured after 20 mins by membrane vesicle transport assay

>  <molecule_pref_name>  (45) 
RIFAMPIN

>  <canonical_smiles>  (45) 
CO[C@H]1/C=C/O[C@@]2(C)Oc3c(C)c(O)c4c(O)c(c(/C=N/N5CCN(C)CC5)c(O)c4c3C2=O)NC(=O)/C(C)=C\C=C\[C@H](C)[C@H](O)[C@@H](C)[C@@H](O)[C@@H](C)[C@H](OC(C)=O)[C@@H]1C

>  <pchembl_value>  (45) 
4.28

>  <standard_type>  (45) 
IC50

>  <standard_relation>  (45) 
=

>  <standard_value>  (45) 
53000.0

>  <standard_units>  (45) 
nM

>  <target_pref_name>  (45) 
Canalicular multispecific organic anion transporter 1

>  <target_organism>  (45) 
Homo sapiens

$$$$
CHEMBL160
     RDKit          2D

 85 85  0  0  0  0  0  0  0  0999 V2000
   12.3901   -5.1962    0.0000 C   0  0  0  0  0  0  0  0  0  0  0  0
   11.6401   -3.8971    0.0000 C   0  0  0  0  0  0  0  0  0  0  0  0
   10.1401   -3.8971    0.0000 C   0  0  0  0  0  0  0  0  0  0  0  0
    9.3901   -2.5981    0.0000 C   0  0  0  0  0  0  0  0  0  0  0  0
   10.1401   -1.2990    0.0000 C   0  0  0  0  0  0  0  0  0  0  0  0
   11.6401   -1.2990    0.0000 C   0  0  0  0  0  0  0  0  0  0  0  0
    9.3901    0.0000    0.0000 C   0  0  0  0  0  0  0  0  0  0  0  0
   10.1401    1.2990    0.0000 O   0  0  0  0  0  0  0  0  0  0  0  0
    7.8901    0.0000    0.0000 C   0  0  0  0  0  0  0  0  0  0  0  0
    7.7475    1.4932    0.0000 C   0  0  0  0  0  0  0  0  0  0  0  0
    9.2204    1.7771    0.0000 O   0  0  0  0  0  0  0  0  0  0  0  0
    7.3249    2.9324    0.0000 N   0  0  0  0  0  0  0  0  0  0  0  0
    6.6376    4.2657    0.0000 C   0  0  0  0  0  0  0  0  0  0  0  0
    7.8994    5.0767    0.0000 C   0  0  0  0  0  0  0  0  0  0  0  0
    9.2327    4.3893    0.0000 C   0  0  0  0  0  0  0  0  0  0  0  0
    5.7103    5.4448    0.0000 C   0  0  0  0  0  0  0  0  0  0  0  0
    6.7959    6.4799    0.0000 O   0  0  0  0  0  0  0  0  0  0  0  0
    4.5767    6.4271    0.0000 N   0  0  0  0  0  0  0  0  0  0  0  0
    5.4468    7.6489    0.0000 C   0  0  0  0  0  0  0  0  0  0  0  0
    3.2777    7.1771    0.0000 C   0  0  0  0  0  0  0  0  0  0  0  0
    1.8602    7.6677    0.0000 C   0  0  0  0  0  0  0  0  0  0  0  0
    2.2138    9.1254    0.0000 O   0  0  0  0  0  0  0  0  0  0  0  0
    0.3754    7.8811    0.0000 N   0  0  0  0  0  0  0  0  0  0  0  0
    0.4468    9.3794    0.0000 C   0  0  0  0  0  0  0  0  0  0  0  0
   -1.1229    7.8098    0.0000 C   0  0  0  0  0  0  0  0  0  0  0  0
   -1.3363    9.2945    0.0000 C   0  0  0  0  0  0  0  0  0  0  0  0
   -0.1573   10.2217    0.0000 C   0  0  0  0  0  0  0  0  0  0  0  0
   -0.3707   11.7065    0.0000 C   0  0  0  0  0  0  0  0  0  0  0  0
    1.2353    9.6642    0.0000 C   0  0  0  0  0  0  0  0  0  0  0  0
   -2.5806    7.4561    0.0000 C   0  0  0  0  0  0  0  0  0  0  0  0
   -3.0712    8.8736    0.0000 O   0  0  0  0  0  0  0  0  0  0  0  0
   -3.9450    6.8330    0.0000 N   0  0  0  0  0  0  0  0  0  0  0  0
   -5.1669    5.9629    0.0000 C   0  0  0  0  0  0  0  0  0  0  0  0
   -6.1492    7.0966    0.0000 C   0  0  0  0  0  0  0  0  0  0  0  0
   -5.6586    8.5141    0.0000 C   0  0  0  0  0  0  0  0  0  0  0  0
   -7.6221    6.8127    0.0000 C   0  0  0  0  0  0  0  0  0  0  0  0
   -6.2020    4.8773    0.0000 C   0  0  0  0  0  0  0  0  0  0  0  0
   -7.3811    5.8046    0.0000 O   0  0  0  0  0  0  0  0  0  0  0  0
   -7.0130    3.6154    0.0000 N   0  0  0  0  0  0  0  0  0  0  0  0
   -8.3462    4.3028    0.0000 C   0  0  0  0  0  0  0  0  0  0  0  0
   -7.5705    2.2229    0.0000 C   0  0  0  0  0  0  0  0  0  0  0  0
   -9.0097    2.6455    0.0000 C   0  0  0  0  0  0  0  0  0  0  0  0
   -9.3634    4.1032    0.0000 C   0  0  0  0  0  0  0  0  0  0  0  0
  -10.8026    4.5258    0.0000 C   0  0  0  0  0  0  0  0  0  0  0  0
   -8.2778    5.1383    0.0000 C   0  0  0  0  0  0  0  0  0  0  0  0
   -7.8544    0.7500    0.0000 C   0  0  0  0  0  0  0  0  0  0  0  0
   -9.3476    0.8926    0.0000 O   0  0  0  0  0  0  0  0  0  0  0  0
   -7.8544   -0.7500    0.0000 N   0  0  0  0  0  0  0  0  0  0  0  0
   -7.5705   -2.2229    0.0000 C   0  0  0  0  0  0  0  0  0  0  0  0
   -9.0097   -2.6455    0.0000 C   0  0  0  0  0  0  0  0  0  0  0  0
   -7.0130   -3.6154    0.0000 C   0  0  0  0  0  0  0  0  0  0  0  0
   -8.3462   -4.3028    0.0000 O   0  0  0  0  0  0  0  0  0  0  0  0
   -6.2020   -4.8773    0.0000 N   0  0  0  0  0  0  0  0  0  0  0  0
   -5.1669   -5.9629    0.0000 C   0  0  0  0  0  0  0  0  0  0  0  0
   -6.1492   -7.0966    0.0000 C   0  0  0  0  0  0  0  0  0  0  0  0
   -3.9450   -6.8330    0.0000 C   0  0  0  0  0  0  0  0  0  0  0  0
   -4.6950   -8.1320    0.0000 O   0  0  0  0  0  0  0  0  0  0  0  0
   -2.5806   -7.4561    0.0000 N   0  0  0  0  0  0  0  0  0  0  0  0
   -3.0712   -8.8736    0.0000 C   0  0  0  0  0  0  0  0  0  0  0  0
   -1.1229   -7.8098    0.0000 C   0  0  0  0  0  0  0  0  0  0  0  0
   -1.3363   -9.2945    0.0000 C   0  0  0  0  0  0  0  0  0  0  0  0
   -2.7289   -9.8520    0.0000 C   0  0  0  0  0  0  0  0  0  0  0  0
   -2.9424  -11.3367    0.0000 C   0  0  0  0  0  0  0  0  0  0  0  0
   -3.9080   -8.9248    0.0000 C   0  0  0  0  0  0  0  0  0  0  0  0
    0.3754   -7.8811    0.0000 C   0  0  0  0  0  0  0  0  0  0  0  0
    0.4468   -9.3794    0.0000 O   0  0  0  0  0  0  0  0  0  0  0  0
    1.8602   -7.6677    0.0000 N   0  0  0  0  0  0  0  0  0  0  0  0
    2.2138   -9.1254    0.0000 C   0  0  0  0  0  0  0  0  0  0  0  0
    3.2777   -7.1771    0.0000 C   0  0  0  0  0  0  0  0  0  0  0  0
    3.9008   -8.5415    0.0000 C   0  0  0  0  0  0  0  0  0  0  0  0
    3.0307   -9.7634    0.0000 C   0  0  0  0  0  0  0  0  0  0  0  0
    3.6538  -11.1278    0.0000 C   0  0  0  0  0  0  0  0  0  0  0  0
    1.5375   -9.6208    0.0000 C   0  0  0  0  0  0  0  0  0  0  0  0
    4.5767   -6.4271    0.0000 C   0  0  0  0  0  0  0  0  0  0  0  0
    5.4468   -7.6489    0.0000 O   0  0  0  0  0  0  0  0  0  0  0  0
    5.7103   -5.4448    0.0000 N   0  0  0  0  0  0  0  0  0  0  0  0
    6.7959   -6.4799    0.0000 C   0  0  0  0  0  0  0  0  0  0  0  0
    6.6376   -4.2657    0.0000 C   0  0  0  0  0  0  0  0  0  0  0  0
    7.8994   -5.0767    0.0000 C   0  0  0  0  0  0  0  0  0  0  0  0
    7.8281   -6.5750    0.0000 C   0  0  0  0  0  0  0  0  0  0  0  0
    9.2327   -4.3893    0.0000 C   0  0  0  0  0  0  0  0  0  0  0  0
    7.3249   -2.9324    0.0000 C   0  0  0  0  0  0  0  0  0  0  0  0
    8.7175   -3.4899    0.0000 O   0  0  0  0  0  0  0  0  0  0  0  0
    7.7475   -1.4932    0.0000 N   0  0  0  0  0  0  0  0  0  0  0  0
    9.2204   -1.7771    0.0000 C   0  0  0  0  0  0  0  0  0  0  0  0
  1  2  1  0
  2  3  2  0
  3  4  1  0
  4  5  1  0
  5  6  1  6
  5  7  1  0
  7  8  1  6
  7  9  1  0
  9 10  1  6
 10 11  2  0
 10 12  1  0
 12 13  1  0
 13 14  1  6
 14 15  1  0
 13 16  1  0
 16 17  2  0
 16 18  1  0
 18 19  1  0
 18 20  1  0
 20 21  1  0
 21 22  2  0
 21 23  1  0
 23 24  1  0
 23 25  1  0
 25 26  1  6
 26 27  1  0
 27 28  1  0
 27 29  1  0
 25 30  1  0
 30 31  2  0
 30 32  1  0
 32 33  1  0
 33 34  1  6
 34 35  1  0
 34 36  1  0
 33 37  1  0
 37 38  2  0
 37 39  1  0
 39 40  1  0
 39 41  1  0
 41 42  1  6
 42 43  1  0
 43 44  1  0
 43 45  1  0
 41 46  1  0
 46 47  2  0
 46 48  1  0
 48 49  1  0
 49 50  1  6
 49 51  1  0
 51 52  2  0
 51 53  1  0
 53 54  1  0
 54 55  1  1
 54 56  1  0
 56 57  2  0
 56 58  1  0
 58 59  1  0
 58 60  1  0
 60 61  1  6
 61 62  1  0
 62 63  1  0
 62 64  1  0
 60 65  1  0
 65 66  2  0
 65 67  1  0
 67 68  1  0
 67 69  1  0
 69 70  1  6
 70 71  1  0
 71 72  1  0
 71 73  1  0
 69 74  1  0
 74 75  2  0
 74 76  1  0
 76 77  1  0
 76 78  1  0
 78 79  1  6
 79 80  1  0
 79 81  1  0
 78 82  1  0
 82 83  2  0
 82 84  1  0
 84 85  1  0
 84  9  1  0
M  END
>  <assay_description>  (46) 
Inhibition of human MRP2 overexpressed in Sf9 cell membrane vesicles assessed as uptake of [3H]-estradiol-17beta-D-glucuronide in presence of ATP and GSH measured after 20 mins by membrane vesicle transport assay

>  <molecule_pref_name>  (46) 
CYCLOSPORINE

>  <canonical_smiles>  (46) 
C/C=C/C[C@@H](C)[C@@H](O)[C@H]1C(=O)N[C@@H](CC)C(=O)N(C)CC(=O)N(C)[C@@H](CC(C)C)C(=O)N[C@@H](C(C)C)C(=O)N(C)[C@@H](CC(C)C)C(=O)N[C@@H](C)C(=O)N[C@H](C)C(=O)N(C)[C@@H](CC(C)C)C(=O)N(C)[C@@H](CC(C)C)C(=O)N(C)[C@@H](C(C)C)C(=O)N1C

>  <pchembl_value>  (46) 
4.84

>  <standard_type>  (46) 
IC50

>  <standard_relation>  (46) 
=

>  <standard_value>  (46) 
14500.0

>  <standard_units>  (46) 
nM

>  <target_pref_name>  (46) 
Canalicular multispecific organic anion transporter 1

>  <target_organism>  (46) 
Homo sapiens

$$$$
CHEMBL1660
     RDKit          2D

 63 68  0  0  0  0  0  0  0  0999 V2000
    0.4940    8.3646    0.0000 C   0  0  0  0  0  0  0  0  0  0  0  0
   -1.0057    8.3332    0.0000 O   0  0  0  0  0  0  0  0  0  0  0  0
   -1.7283    7.0188    0.0000 C   0  0  0  0  0  0  0  0  0  0  0  0
   -0.5195    6.1307    0.0000 C   0  0  0  0  0  0  0  0  0  0  0  0
    0.4184    4.9601    0.0000 C   0  0  0  0  0  0  0  0  0  0  0  0
    1.0212    3.5866    0.0000 O   0  0  0  0  0  0  0  0  0  0  0  0
    0.3943    1.2135    0.0000 C   0  0  0  0  0  0  0  0  0  0  0  0
    0.8578    2.6401    0.0000 C   0  0  0  0  0  0  0  0  0  0  0  0
    1.2760    0.0000    0.0000 O   0  0  0  0  0  0  0  0  0  0  0  0
    0.3943   -1.2135    0.0000 C   0  0  0  0  0  0  0  0  0  0  0  0
    0.7062   -2.6807    0.0000 C   0  0  0  0  0  0  0  0  0  0  0  0
    2.1328   -3.1443    0.0000 C   0  0  0  0  0  0  0  0  0  0  0  0
   -0.4086   -3.6844    0.0000 C   0  0  0  0  0  0  0  0  0  0  0  0
   -0.0967   -5.1517    0.0000 O   0  0  0  0  0  0  0  0  0  0  0  0
   -1.8351   -3.2209    0.0000 C   0  0  0  0  0  0  0  0  0  0  0  0
   -2.9499   -4.2246    0.0000 C   0  0  0  0  0  0  0  0  0  0  0  0
   -2.6380   -5.6918    0.0000 O   0  0  0  0  0  0  0  0  0  0  0  0
   -4.3764   -3.7611    0.0000 C   0  0  0  0  0  0  0  0  0  0  0  0
   -4.6883   -2.2939    0.0000 C   0  0  0  0  0  0  0  0  0  0  0  0
   -6.1149   -1.8303    0.0000 C   0  0  0  0  0  0  0  0  0  0  0  0
   -6.4268   -0.3631    0.0000 N   0  0  0  0  0  0  0  0  0  0  0  0
   -7.8533    0.1004    0.0000 N   0  0  0  0  0  0  0  0  0  0  0  0
   -8.1652    1.5676    0.0000 C   0  0  0  0  0  0  0  0  0  0  0  0
   -9.5918    2.0312    0.0000 C   0  0  0  0  0  0  0  0  0  0  0  0
  -10.7065    1.0275    0.0000 N   0  0  0  0  0  0  0  0  0  0  0  0
  -12.1331    1.4910    0.0000 C   0  0  0  0  0  0  0  0  0  0  0  0
  -13.3466    0.6093    0.0000 C   0  0  0  0  0  0  0  0  0  0  0  0
  -14.5601    1.4910    0.0000 C   0  0  0  0  0  0  0  0  0  0  0  0
  -14.0966    2.9176    0.0000 C   0  0  0  0  0  0  0  0  0  0  0  0
  -12.5966    2.9176    0.0000 C   0  0  0  0  0  0  0  0  0  0  0  0
  -10.3946   -0.4398    0.0000 C   0  0  0  0  0  0  0  0  0  0  0  0
   -8.9681   -0.9033    0.0000 C   0  0  0  0  0  0  0  0  0  0  0  0
   -3.5736   -1.2902    0.0000 C   0  0  0  0  0  0  0  0  0  0  0  0
   -3.8855    0.1771    0.0000 O   0  0  0  0  0  0  0  0  0  0  0  0
   -2.1470   -1.7537    0.0000 C   0  0  0  0  0  0  0  0  0  0  0  0
   -1.0323   -0.7500    0.0000 C   0  0  0  0  0  0  0  0  0  0  0  0
   -1.0323    0.7500    0.0000 C   0  0  0  0  0  0  0  0  0  0  0  0
   -2.2458    1.6317    0.0000 O   0  0  0  0  0  0  0  0  0  0  0  0
   -5.8674   -3.5964    0.0000 N   0  0  0  0  0  0  0  0  0  0  0  0
   -7.2649   -3.0515    0.0000 C   0  0  0  0  0  0  0  0  0  0  0  0
   -7.9876   -4.3660    0.0000 O   0  0  0  0  0  0  0  0  0  0  0  0
   -8.4738   -2.1635    0.0000 C   0  0  0  0  0  0  0  0  0  0  0  0
   -9.5120   -3.2461    0.0000 C   0  0  0  0  0  0  0  0  0  0  0  0
   -9.4116   -0.9928    0.0000 C   0  0  0  0  0  0  0  0  0  0  0  0
  -10.0145    0.3807    0.0000 C   0  0  0  0  0  0  0  0  0  0  0  0
  -10.2413    1.8634    0.0000 C   0  0  0  0  0  0  0  0  0  0  0  0
  -10.0767    3.3544    0.0000 C   0  0  0  0  0  0  0  0  0  0  0  0
  -11.5334    3.7122    0.0000 C   0  0  0  0  0  0  0  0  0  0  0  0
   -9.5318    4.7519    0.0000 C   0  0  0  0  0  0  0  0  0  0  0  0
  -10.8462    5.4746    0.0000 O   0  0  0  0  0  0  0  0  0  0  0  0
   -8.6437    5.9608    0.0000 C   0  0  0  0  0  0  0  0  0  0  0  0
   -9.7263    6.9990    0.0000 C   0  0  0  0  0  0  0  0  0  0  0  0
   -7.4731    6.8986    0.0000 C   0  0  0  0  0  0  0  0  0  0  0  0
   -8.2501    8.1817    0.0000 O   0  0  0  0  0  0  0  0  0  0  0  0
   -6.0995    7.5015    0.0000 C   0  0  0  0  0  0  0  0  0  0  0  0
   -6.5180    8.9419    0.0000 C   0  0  0  0  0  0  0  0  0  0  0  0
   -4.6168    7.7283    0.0000 C   0  0  0  0  0  0  0  0  0  0  0  0
   -4.6482    9.2280    0.0000 O   0  0  0  0  0  0  0  0  0  0  0  0
   -3.3651   10.0050    0.0000 C   0  0  0  0  0  0  0  0  0  0  0  0
   -3.3965   11.5047    0.0000 C   0  0  0  0  0  0  0  0  0  0  0  0
   -1.9724    9.4480    0.0000 O   0  0  0  0  0  0  0  0  0  0  0  0
   -3.1259    7.5637    0.0000 C   0  0  0  0  0  0  0  0  0  0  0  0
   -2.5931    8.9659    0.0000 C   0  0  0  0  0  0  0  0  0  0  0  0
  1  2  1  0
  3  2  1  1
  3  4  1  0
  4  5  2  0
  5  6  1  0
  6  7  1  0
  7  8  1  6
  7  9  1  0
  9 10  1  0
 10 11  2  0
 11 12  1  0
 11 13  1  0
 13 14  1  0
 13 15  2  0
 15 16  1  0
 16 17  1  0
 16 18  2  0
 18 19  1  0
 19 20  1  0
 20 21  2  0
 21 22  1  0
 22 23  1  0
 23 24  1  0
 24 25  1  0
 25 26  1  0
 26 27  1  0
 27 28  1  0
 28 29  1  0
 29 30  1  0
 25 31  1  0
 31 32  1  0
 19 33  2  0
 33 34  1  0
 33 35  1  0
 35 36  2  0
 36 37  1  0
 37 38  2  0
 18 39  1  0
 39 40  1  0
 40 41  2  0
 40 42  1  0
 42 43  1  0
 42 44  2  0
 44 45  1  0
 45 46  2  0
 46 47  1  0
 47 48  1  6
 47 49  1  0
 49 50  1  6
 49 51  1  0
 51 52  1  1
 51 53  1  0
 53 54  1  1
 53 55  1  0
 55 56  1  1
 55 57  1  0
 57 58  1  6
 58 59  1  0
 59 60  1  0
 59 61  2  0
 57 62  1  0
 62 63  1  6
 62  3  1  0
 37  7  1  0
 36 10  1  0
 35 15  1  0
 32 22  1  0
 30 26  1  0
M  END
>  <assay_description>  (47) 
Inhibition of human MRP2 overexpressed in Sf9 cell membrane vesicles assessed as uptake of [3H]-estradiol-17beta-D-glucuronide in presence of ATP and GSH measured after 20 mins by membrane vesicle transport assay

>  <molecule_pref_name>  (47) 
RIFAPENTINE

>  <canonical_smiles>  (47) 
CO[C@H]1/C=C/O[C@@]2(C)Oc3c(C)c(O)c4c(O)c(c(/C=N/N5CCN(C6CCCC6)CC5)c(O)c4c3C2=O)NC(=O)/C(C)=C\C=C\[C@H](C)[C@H](O)[C@@H](C)[C@@H](O)[C@@H](C)[C@H](OC(C)=O)[C@@H]1C

>  <pchembl_value>  (47) 
4.79

>  <standard_type>  (47) 
IC50

>  <standard_relation>  (47) 
=

>  <standard_value>  (47) 
16300.0

>  <standard_units>  (47) 
nM

>  <target_pref_name>  (47) 
Canalicular multispecific organic anion transporter 1

>  <target_organism>  (47) 
Homo sapiens

$$$$
CHEMBL428496
     RDKit          2D

 31 35  0  0  0  0  0  0  0  0999 V2000
   -3.7527    6.6955    0.0000 C   0  0  0  0  0  0  0  0  0  0  0  0
   -2.6380    5.6918    0.0000 O   0  0  0  0  0  0  0  0  0  0  0  0
   -2.9499    4.2246    0.0000 C   0  0  0  0  0  0  0  0  0  0  0  0
   -1.8351    3.2209    0.0000 C   0  0  0  0  0  0  0  0  0  0  0  0
   -0.4086    3.6844    0.0000 O   0  0  0  0  0  0  0  0  0  0  0  0
    0.7062    2.6807    0.0000 C   0  0  0  0  0  0  0  0  0  0  0  0
    2.1328    3.1443    0.0000 O   0  0  0  0  0  0  0  0  0  0  0  0
    0.3943    1.2135    0.0000 C   0  0  0  0  0  0  0  0  0  0  0  0
    1.2760    0.0000    0.0000 C   0  0  0  0  0  0  0  0  0  0  0  0
    0.3943   -1.2135    0.0000 O   0  0  0  0  0  0  0  0  0  0  0  0
   -1.0323   -0.7500    0.0000 C   0  0  0  0  0  0  0  0  0  0  0  0
   -1.0323    0.7500    0.0000 C   0  0  0  0  0  0  0  0  0  0  0  0
   -2.1470    1.7537    0.0000 C   0  0  0  0  0  0  0  0  0  0  0  0
   -3.2378    1.6775    0.0000 C   0  0  0  0  0  0  0  0  0  0  0  0
   -3.4593    1.0134    0.0000 C   0  0  0  0  0  0  0  0  0  0  0  0
   -3.6161   -0.4784    0.0000 C   0  0  0  0  0  0  0  0  0  0  0  0
   -2.4026   -1.3601    0.0000 C   0  0  0  0  0  0  0  0  0  0  0  0
   -2.5594   -2.8519    0.0000 O   0  0  0  0  0  0  0  0  0  0  0  0
   -4.9864   -1.0885    0.0000 C   0  0  0  0  0  0  0  0  0  0  0  0
   -5.4500   -2.5151    0.0000 C   0  0  0  0  0  0  0  0  0  0  0  0
   -6.9500   -2.5151    0.0000 C   0  0  0  0  0  0  0  0  0  0  0  0
   -7.4135   -1.0885    0.0000 C   0  0  0  0  0  0  0  0  0  0  0  0
   -8.8401   -0.6250    0.0000 O   0  0  0  0  0  0  0  0  0  0  0  0
   -6.2000   -0.2069    0.0000 C   0  0  0  0  0  0  0  0  0  0  0  0
   -7.4990    0.5431    0.0000 C   0  0  0  0  0  0  0  0  0  0  0  0
   -6.0432    1.2849    0.0000 C   0  0  0  0  0  0  0  0  0  0  0  0
   -4.6729    1.8950    0.0000 C   0  0  0  0  0  0  0  0  0  0  0  0
   -4.5161    3.3868    0.0000 O   0  0  0  0  0  0  0  0  0  0  0  0
   -5.7296    4.2685    0.0000 C   0  0  0  0  0  0  0  0  0  0  0  0
   -5.5728    5.7603    0.0000 C   0  0  0  0  0  0  0  0  0  0  0  0
   -7.0999    3.6584    0.0000 O   0  0  0  0  0  0  0  0  0  0  0  0
  1  2  1  0
  2  3  1  0
  4  3  1  1
  4  5  1  0
  5  6  1  0
  6  7  2  0
  6  8  1  0
  8  9  2  0
  9 10  1  0
 10 11  1  0
 11 12  2  0
 12 13  1  0
 13 14  1  6
 13 15  1  0
 15 16  2  0
 16 17  1  0
 17 18  2  0
 16 19  1  0
 19 20  1  6
 20 21  1  0
 21 22  1  0
 22 23  2  0
 22 24  1  0
 24 25  1  6
 24 26  1  0
 26 27  1  0
 27 28  1  1
 28 29  1  0
 29 30  1  0
 29 31  2  0
 13  4  1  0
 27 15  1  0
 12  8  1  0
 24 19  1  0
 17 11  1  0
M  END
>  <assay_description>  (48) 
Inhibition of human MRP2 overexpressed in Sf9 cell membrane vesicles assessed as uptake of [3H]-estradiol-17beta-D-glucuronide in presence of ATP and GSH measured after 20 mins by membrane vesicle transport assay

>  <molecule_pref_name>  (48) 
WORTMANNIN

>  <canonical_smiles>  (48) 
COC[C@H]1OC(=O)c2coc3c2[C@@]1(C)C1=C(C3=O)[C@@H]2CCC(=O)[C@@]2(C)C[C@H]1OC(C)=O

>  <pchembl_value>  (48) 
4.34

>  <standard_type>  (48) 
IC50

>  <standard_relation>  (48) 
=

>  <standard_value>  (48) 
46100.0

>  <standard_units>  (48) 
nM

>  <target_pref_name>  (48) 
Canalicular multispecific organic anion transporter 1

>  <target_organism>  (48) 
Homo sapiens

$$$$
CHEMBL1617
     RDKit          2D

 57 62  0  0  0  0  0  0  0  0999 V2000
   -0.4387  -15.0730    0.0000 C   0  0  0  0  0  0  0  0  0  0  0  0
   -1.8973  -14.7229    0.0000 O   0  0  0  0  0  0  0  0  0  0  0  0
   -2.3233  -13.2846    0.0000 C   0  0  0  0  0  0  0  0  0  0  0  0
   -0.9530  -12.6745    0.0000 C   0  0  0  0  0  0  0  0  0  0  0  0
    0.2127  -11.7305    0.0000 C   0  0  0  0  0  0  0  0  0  0  0  0
    1.0944  -10.5170    0.0000 O   0  0  0  0  0  0  0  0  0  0  0  0
    1.6319   -9.1167    0.0000 C   0  0  0  0  0  0  0  0  0  0  0  0
    3.0905   -9.4668    0.0000 C   0  0  0  0  0  0  0  0  0  0  0  0
    2.9644   -8.4277    0.0000 O   0  0  0  0  0  0  0  0  0  0  0  0
    3.0459   -6.3001    0.0000 C   0  0  0  0  0  0  0  0  0  0  0  0
    3.9275   -5.0866    0.0000 C   0  0  0  0  0  0  0  0  0  0  0  0
    5.4193   -5.2434    0.0000 C   0  0  0  0  0  0  0  0  0  0  0  0
    3.3174   -3.7163    0.0000 C   0  0  0  0  0  0  0  0  0  0  0  0
    4.1991   -2.5028    0.0000 O   0  0  0  0  0  0  0  0  0  0  0  0
    1.8257   -3.5595    0.0000 C   0  0  0  0  0  0  0  0  0  0  0  0
   -0.2707   -2.8312    0.0000 C   0  0  0  0  0  0  0  0  0  0  0  0
   -2.0368   -4.7212    0.0000 O   0  0  0  0  0  0  0  0  0  0  0  0
   -2.6139   -2.1881    0.0000 C   0  0  0  0  0  0  0  0  0  0  0  0
   -1.2135   -2.7256    0.0000 C   0  0  0  0  0  0  0  0  0  0  0  0
   -0.0000   -3.6073    0.0000 C   0  0  0  0  0  0  0  0  0  0  0  0
    1.2135   -2.7256    0.0000 N   0  0  0  0  0  0  0  0  0  0  0  0
    0.7500   -1.2990    0.0000 C   0  0  0  0  0  0  0  0  0  0  0  0
    1.5000    0.0000    0.0000 C   0  0  0  0  0  0  0  0  0  0  0  0
    0.7500    1.2990    0.0000 C   0  0  0  0  0  0  0  0  0  0  0  0
    1.5000    2.5981    0.0000 C   0  0  0  0  0  0  0  0  0  0  0  0
   -0.7500    1.2990    0.0000 C   0  0  0  0  0  0  0  0  0  0  0  0
   -1.5000    0.0000    0.0000 C   0  0  0  0  0  0  0  0  0  0  0  0
   -0.7500   -1.2990    0.0000 N   0  0  0  0  0  0  0  0  0  0  0  0
    0.9440   -4.7730    0.0000 C   0  0  0  0  0  0  0  0  0  0  0  0
    1.5541   -6.1433    0.0000 C   0  0  0  0  0  0  0  0  0  0  0  0
    1.7887   -7.6249    0.0000 C   0  0  0  0  0  0  0  0  0  0  0  0
    3.2342   -7.2239    0.0000 O   0  0  0  0  0  0  0  0  0  0  0  0
   -4.1057   -2.0313    0.0000 N   0  0  0  0  0  0  0  0  0  0  0  0
   -5.5872   -2.2659    0.0000 C   0  0  0  0  0  0  0  0  0  0  0  0
   -6.0132   -0.8277    0.0000 O   0  0  0  0  0  0  0  0  0  0  0  0
   -6.9575   -2.8760    0.0000 C   0  0  0  0  0  0  0  0  0  0  0  0
   -7.7413   -1.5971    0.0000 C   0  0  0  0  0  0  0  0  0  0  0  0
   -8.1232   -3.8200    0.0000 C   0  0  0  0  0  0  0  0  0  0  0  0
   -9.0049   -5.0335    0.0000 C   0  0  0  0  0  0  0  0  0  0  0  0
   -9.5425   -6.4339    0.0000 C   0  0  0  0  0  0  0  0  0  0  0  0
   -9.6993   -7.9257    0.0000 C   0  0  0  0  0  0  0  0  0  0  0  0
  -11.1988   -7.9650    0.0000 C   0  0  0  0  0  0  0  0  0  0  0  0
   -9.4646   -9.4072    0.0000 C   0  0  0  0  0  0  0  0  0  0  0  0
  -10.9028   -9.8333    0.0000 O   0  0  0  0  0  0  0  0  0  0  0  0
   -8.8545  -10.7775    0.0000 C   0  0  0  0  0  0  0  0  0  0  0  0
  -10.1335  -11.5613    0.0000 C   0  0  0  0  0  0  0  0  0  0  0  0
   -7.9105  -11.9433    0.0000 C   0  0  0  0  0  0  0  0  0  0  0  0
   -8.9431  -13.0313    0.0000 O   0  0  0  0  0  0  0  0  0  0  0  0
   -6.6970  -12.8249    0.0000 C   0  0  0  0  0  0  0  0  0  0  0  0
   -7.4810  -13.9240    0.0000 C   0  0  0  0  0  0  0  0  0  0  0  0
   -5.2966  -13.3625    0.0000 C   0  0  0  0  0  0  0  0  0  0  0  0
   -5.6468  -14.8210    0.0000 O   0  0  0  0  0  0  0  0  0  0  0  0
   -7.0850  -15.2471    0.0000 C   0  0  0  0  0  0  0  0  0  0  0  0
   -7.4352  -16.7056    0.0000 C   0  0  0  0  0  0  0  0  0  0  0  0
   -8.1703  -14.4441    0.0000 O   0  0  0  0  0  0  0  0  0  0  0  0
   -3.8049  -13.5193    0.0000 C   0  0  0  0  0  0  0  0  0  0  0  0
   -3.7656  -15.0188    0.0000 C   0  0  0  0  0  0  0  0  0  0  0  0
  1  2  1  0
  3  2  1  6
  3  4  1  0
  4  5  2  0
  5  6  1  0
  6  7  1  0
  7  8  1  1
  7  9  1  0
  9 10  1  0
 10 11  2  0
 11 12  1  0
 11 13  1  0
 13 14  1  0
 13 15  2  0
 15 16  1  0
 16 17  1  0
 16 18  2  0
 18 19  1  0
 19 20  2  0
 20 21  1  0
 21 22  2  0
 22 23  1  0
 23 24  2  0
 24 25  1  0
 24 26  1  0
 26 27  2  0
 27 28  1  0
 20 29  1  0
 29 30  2  0
 30 31  1  0
 31 32  2  0
 18 33  1  0
 33 34  1  0
 34 35  2  0
 34 36  1  0
 36 37  1  0
 36 38  2  0
 38 39  1  0
 39 40  2  0
 40 41  1  0
 41 42  1  1
 41 43  1  0
 43 44  1  1
 43 45  1  0
 45 46  1  6
 45 47  1  0
 47 48  1  6
 47 49  1  0
 49 50  1  6
 49 51  1  0
 51 52  1  1
 52 53  1  0
 53 54  1  0
 53 55  2  0
 51 56  1  0
 56 57  1  1
 56  3  1  0
 31  7  1  0
 30 10  1  0
 29 15  1  0
 28 19  1  0
 28 22  1  0
M  END
>  <assay_description>  (49) 
Inhibition of human MRP2 overexpressed in Sf9 cell membrane vesicles assessed as uptake of [3H]-estradiol-17beta-D-glucuronide in presence of ATP and GSH measured after 20 mins by membrane vesicle transport assay

>  <molecule_pref_name>  (49) 
RIFAXIMIN

>  <canonical_smiles>  (49) 
CO[C@H]1/C=C/O[C@@]2(C)Oc3c(C)c(O)c4c(O)c(c5c(nc6cc(C)ccn65)c4c3C2=O)NC(=O)/C(C)=C\C=C\[C@H](C)[C@H](O)[C@@H](C)[C@@H](O)[C@@H](C)[C@H](OC(C)=O)[C@@H]1C

>  <pchembl_value>  (49) 
4.81

>  <standard_type>  (49) 
IC50

>  <standard_relation>  (49) 
=

>  <standard_value>  (49) 
15400.0

>  <standard_units>  (49) 
nM

>  <target_pref_name>  (49) 
Canalicular multispecific organic anion transporter 1

>  <target_organism>  (49) 
Homo sapiens

$$$$
CHEMBL77305
     RDKit          2D

 29 33  0  0  0  0  0  0  0  0999 V2000
   -5.9157   -6.1668    0.0000 C   0  0  0  0  0  0  0  0  0  0  0  0
   -4.4738   -6.5802    0.0000 C   0  0  0  0  0  0  0  0  0  0  0  0
   -4.1110   -8.0357    0.0000 C   0  0  0  0  0  0  0  0  0  0  0  0
   -5.6073   -8.1403    0.0000 O   0  0  0  0  0  0  0  0  0  0  0  0
   -4.2677   -9.5275    0.0000 C   0  0  0  0  0  0  0  0  0  0  0  0
   -5.6381  -10.1376    0.0000 O   0  0  0  0  0  0  0  0  0  0  0  0
   -3.0542  -10.4092    0.0000 O   0  0  0  0  0  0  0  0  0  0  0  0
   -1.6839   -9.7990    0.0000 C   0  0  0  0  0  0  0  0  0  0  0  0
   -1.5271   -8.3073    0.0000 C   0  0  0  0  0  0  0  0  0  0  0  0
   -2.7406   -7.4256    0.0000 C   0  0  0  0  0  0  0  0  0  0  0  0
   -2.5838   -5.9338    0.0000 C   0  0  0  0  0  0  0  0  0  0  0  0
   -1.2135   -5.3237    0.0000 C   0  0  0  0  0  0  0  0  0  0  0  0
   -0.0000   -6.2054    0.0000 N   0  0  0  0  0  0  0  0  0  0  0  0
   -0.1568   -7.6972    0.0000 C   0  0  0  0  0  0  0  0  0  0  0  0
    1.0567   -8.5788    0.0000 O   0  0  0  0  0  0  0  0  0  0  0  0
    1.2135   -5.3237    0.0000 C   0  0  0  0  0  0  0  0  0  0  0  0
    0.7500   -3.8971    0.0000 C   0  0  0  0  0  0  0  0  0  0  0  0
    1.5000   -2.5981    0.0000 C   0  0  0  0  0  0  0  0  0  0  0  0
    0.7500   -1.2990    0.0000 C   0  0  0  0  0  0  0  0  0  0  0  0
    1.5000    0.0000    0.0000 C   0  0  0  0  0  0  0  0  0  0  0  0
    3.0000    0.0000    0.0000 N   0  0  0  0  0  4  0  0  0  0  0  0
    3.7500   -1.2990    0.0000 O   0  0  0  0  0  0  0  0  0  0  0  0
    3.7500    1.2990    0.0000 O   0  0  0  0  0  1  0  0  0  0  0  0
    0.7500    1.2990    0.0000 C   0  0  0  0  0  0  0  0  0  0  0  0
   -0.7500    1.2990    0.0000 C   0  0  0  0  0  0  0  0  0  0  0  0
   -1.5000    0.0000    0.0000 C   0  0  0  0  0  0  0  0  0  0  0  0
   -0.7500   -1.2990    0.0000 C   0  0  0  0  0  0  0  0  0  0  0  0
   -1.5000   -2.5981    0.0000 N   0  0  0  0  0  0  0  0  0  0  0  0
   -0.7500   -3.8971    0.0000 C   0  0  0  0  0  0  0  0  0  0  0  0
  1  2  1  0
  2  3  1  0
  3  4  1  1
  3  5  1  0
  5  6  2  0
  5  7  1  0
  7  8  1  0
  8  9  1  0
  9 10  2  0
 10 11  1  0
 11 12  2  0
 12 13  1  0
 13 14  1  0
 14 15  2  0
 13 16  1  0
 16 17  1  0
 17 18  2  0
 18 19  1  0
 19 20  2  0
 20 21  1  0
 21 22  2  0
 21 23  1  0
 20 24  1  0
 24 25  2  0
 25 26  1  0
 26 27  2  0
 27 28  1  0
 28 29  2  0
 10  3  1  0
 29 12  1  0
 14  9  1  0
 29 17  1  0
 27 19  1  0
M  CHG  2  21   1  23  -1
M  END
>  <assay_description>  (50) 
Inhibition of human MRP2 overexpressed in Sf9 cell membrane vesicles assessed as uptake of [3H]-estradiol-17beta-D-glucuronide in presence of ATP and GSH measured after 20 mins by membrane vesicle transport assay

>  <molecule_pref_name>  (50) 
RUBITECAN

>  <canonical_smiles>  (50) 
CC[C@@]1(O)C(=O)OCc2c1cc1n(c2=O)Cc2cc3c([N+](=O)[O-])cccc3nc2-1

>  <pchembl_value>  (50) 
4.22

>  <standard_type>  (50) 
IC50

>  <standard_relation>  (50) 
=

>  <standard_value>  (50) 
60500.0

>  <standard_units>  (50) 
nM

>  <target_pref_name>  (50) 
Canalicular multispecific organic anion transporter 1

>  <target_organism>  (50) 
Homo sapiens

$$$$
CHEMBL4063475
     RDKit          2D

 16 15  0  0  0  0  0  0  0  0999 V2000
    4.5000   -2.5981    0.0000 C   0  0  0  0  0  0  0  0  0  0  0  0
    3.7500   -1.2990    0.0000 C   0  0  0  0  0  0  0  0  0  0  0  0
    2.4510   -2.0490    0.0000 N   0  0  0  0  0  0  0  0  0  0  0  0
    3.0000    0.0000    0.0000 C   0  0  0  0  0  0  0  0  0  0  0  0
    1.5000    0.0000    0.0000 C   0  0  0  0  0  0  0  0  0  0  0  0
    0.7500   -1.2990    0.0000 C   0  0  0  0  0  0  0  0  0  0  0  0
   -0.7500   -1.2990    0.0000 C   0  0  0  0  0  0  0  0  0  0  0  0
   -1.5000    0.0000    0.0000 C   0  0  0  0  0  0  0  0  0  0  0  0
   -3.0000    0.0000    0.0000 O   0  0  0  0  0  0  0  0  0  0  0  0
   -0.7500    1.2990    0.0000 C   0  0  0  0  0  0  0  0  0  0  0  0
   -1.5000    2.5981    0.0000 O   0  0  0  0  0  0  0  0  0  0  0  0
    0.7500    1.2990    0.0000 C   0  0  0  0  0  0  0  0  0  0  0  0
    5.0490   -0.5490    0.0000 C   0  0  0  0  0  0  0  0  0  0  0  0
    5.0490    0.9510    0.0000 O   0  0  0  0  0  0  0  0  0  0  0  0
    6.3481   -1.2990    0.0000 O   0  0  0  0  0  0  0  0  0  0  0  0
    0.0000    3.5981    0.0000 O   0  0  0  0  0  0  0  0  0  0  0  0
  2  1  1  6
  2  3  1  0
  2  4  1  0
  4  5  1  0
  5  6  2  0
  6  7  1  0
  7  8  2  0
  8  9  1  0
  8 10  1  0
 10 11  1  0
 10 12  2  0
  2 13  1  0
 13 14  2  0
 13 15  1  0
 12  5  1  0
M  END
>  <assay_description>  (51) 
Inhibition of human MRP2 overexpressed in Sf9 cell membrane vesicles assessed as uptake of [3H]-estradiol-17beta-D-glucuronide in presence of ATP and GSH measured after 20 mins by membrane vesicle transport assay

>  <molecule_pref_name>  (51) 
None

>  <canonical_smiles>  (51) 
C[C@](N)(Cc1ccc(O)c(O)c1)C(=O)O.O

>  <pchembl_value>  (51) 
4.19

>  <standard_type>  (51) 
IC50

>  <standard_relation>  (51) 
=

>  <standard_value>  (51) 
64200.0

>  <standard_units>  (51) 
nM

>  <target_pref_name>  (51) 
Canalicular multispecific organic anion transporter 1

>  <target_organism>  (51) 
Homo sapiens

$$$$
CHEMBL1541
     RDKit          2D

 30 32  0  0  0  0  0  0  0  0999 V2000
    3.7500   -1.2990    0.0000 C   0  0  0  0  0  0  0  0  0  0  0  0
    3.0000    0.0000    0.0000 C   0  0  0  0  0  0  0  0  0  0  0  0
    1.5000    0.0000    0.0000 C   0  0  0  0  0  0  0  0  0  0  0  0
    0.7500   -1.2990    0.0000 C   0  0  0  0  0  0  0  0  0  0  0  0
    1.5000   -2.5981    0.0000 C   0  0  0  0  0  0  0  0  0  0  0  0
    3.0000   -2.5981    0.0000 O   0  0  0  0  0  0  0  0  0  0  0  0
    0.7500   -3.8971    0.0000 O   0  0  0  0  0  0  0  0  0  0  0  0
   -0.7500   -1.2990    0.0000 N   0  0  0  0  0  0  0  0  0  0  0  0
   -2.0490   -2.0490    0.0000 C   0  0  0  0  0  0  0  0  0  0  0  0
   -2.4373   -3.4979    0.0000 O   0  0  0  0  0  0  0  0  0  0  0  0
   -2.7990   -0.7500    0.0000 C   0  0  0  0  0  0  0  0  0  0  0  0
   -4.2479   -0.3618    0.0000 N   0  0  0  0  0  0  0  0  0  0  0  0
   -4.6362    1.0871    0.0000 C   0  0  0  0  0  0  0  0  0  0  0  0
   -3.5755    2.1478    0.0000 O   0  0  0  0  0  0  0  0  0  0  0  0
   -6.0850    1.4753    0.0000 C   0  0  0  0  0  0  0  0  0  0  0  0
   -6.4733    2.9242    0.0000 N   0  0  0  0  0  0  0  0  0  0  0  0
   -5.4126    3.9849    0.0000 O   0  0  0  0  0  0  0  0  0  0  0  0
   -5.8008    5.4338    0.0000 C   0  0  0  0  0  0  0  0  0  0  0  0
   -4.7402    6.4944    0.0000 C   0  0  0  0  0  0  0  0  0  0  0  0
   -3.2913    6.1062    0.0000 O   0  0  0  0  0  0  0  0  0  0  0  0
   -5.1284    7.9433    0.0000 O   0  0  0  0  0  0  0  0  0  0  0  0
   -7.1457    0.4147    0.0000 C   0  0  0  0  0  0  0  0  0  0  0  0
   -6.9111   -1.0668    0.0000 C   0  0  0  0  0  0  0  0  0  0  0  0
   -8.2476   -1.7478    0.0000 S   0  0  0  0  0  0  0  0  0  0  0  0
   -9.3082   -0.6872    0.0000 C   0  0  0  0  0  0  0  0  0  0  0  0
  -10.7898   -0.9218    0.0000 N   0  0  0  0  0  0  0  0  0  0  0  0
   -8.6272    0.6493    0.0000 N   0  0  0  0  0  0  0  0  0  0  0  0
   -1.5000    0.0000    0.0000 C   0  0  0  0  0  0  0  0  0  0  0  0
   -0.7500    1.2990    0.0000 S   0  0  0  0  0  0  0  0  0  0  0  0
    0.7500    1.2990    0.0000 C   0  0  0  0  0  0  0  0  0  0  0  0
  1  2  2  0
  2  3  1  0
  3  4  2  0
  4  5  1  0
  5  6  2  0
  5  7  1  0
  4  8  1  0
  8  9  1  0
  9 10  2  0
  9 11  1  0
 11 12  1  1
 12 13  1  0
 13 14  2  0
 13 15  1  0
 15 16  2  0
 16 17  1  0
 17 18  1  0
 18 19  1  0
 19 20  2  0
 19 21  1  0
 15 22  1  0
 22 23  2  0
 23 24  1  0
 24 25  1  0
 25 26  1  0
 25 27  2  0
 11 28  1  0
 28 29  1  1
 29 30  1  0
 30  3  1  0
 28  8  1  0
 27 22  1  0
M  END
>  <assay_description>  (52) 
Inhibition of human MRP2 overexpressed in Sf9 cell membrane vesicles assessed as uptake of [3H]-estradiol-17beta-D-glucuronide in presence of ATP and GSH measured after 20 mins by membrane vesicle transport assay

>  <molecule_pref_name>  (52) 
CEFIXIME

>  <canonical_smiles>  (52) 
C=CC1=C(C(=O)O)N2C(=O)[C@@H](NC(=O)/C(=N\OCC(=O)O)c3csc(N)n3)[C@H]2SC1

>  <pchembl_value>  (52) 
4.05

>  <standard_type>  (52) 
IC50

>  <standard_relation>  (52) 
=

>  <standard_value>  (52) 
89400.0

>  <standard_units>  (52) 
nM

>  <target_pref_name>  (52) 
Canalicular multispecific organic anion transporter 1

>  <target_organism>  (52) 
Homo sapiens

$$$$
CHEMBL387675
     RDKit          2D

115118  0  0  0  0  0  0  0  0999 V2000
   13.9854   13.4836    0.0000 C   0  0  0  0  0  0  0  0  0  0  0  0
   13.5123   12.0601    0.0000 C   0  0  0  0  0  0  0  0  0  0  0  0
   14.5084   10.9387    0.0000 C   0  0  0  0  0  0  0  0  0  0  0  0
   14.0353    9.5153    0.0000 C   0  0  0  0  0  0  0  0  0  0  0  0
   15.0314    8.3938    0.0000 C   0  0  0  0  0  0  0  0  0  0  0  0
   14.5583    6.9704    0.0000 C   0  0  0  0  0  0  0  0  0  0  0  0
   15.5544    5.8489    0.0000 C   0  0  0  0  0  0  0  0  0  0  0  0
   15.0813    4.4255    0.0000 C   0  0  0  0  0  0  0  0  0  0  0  0
   16.0774    3.3040    0.0000 C   0  0  0  0  0  0  0  0  0  0  0  0
   15.6043    1.8806    0.0000 C   0  0  0  0  0  0  0  0  0  0  0  0
   14.1350    1.5786    0.0000 O   0  0  0  0  0  0  0  0  0  0  0  0
   16.6004    0.7591    0.0000 N   0  0  0  0  0  0  0  0  0  0  0  0
   16.1272   -0.6643    0.0000 C   0  0  0  0  0  0  0  0  0  0  0  0
   17.1234   -1.7858    0.0000 C   0  0  0  0  0  0  0  0  0  0  0  0
   18.5927   -1.4838    0.0000 C   0  0  0  0  0  0  0  0  0  0  0  0
   19.2120   -0.1177    0.0000 C   0  0  0  0  0  0  0  0  0  0  0  0
   20.7027   -0.2846    0.0000 N   0  0  0  0  0  0  0  0  0  0  0  0
   21.0047   -1.7538    0.0000 C   0  0  0  0  0  0  0  0  0  0  0  0
   22.2986   -2.5126    0.0000 C   0  0  0  0  0  0  0  0  0  0  0  0
   22.2885   -4.0126    0.0000 C   0  0  0  0  0  0  0  0  0  0  0  0
   20.9844   -4.7538    0.0000 C   0  0  0  0  0  0  0  0  0  0  0  0
   19.6905   -3.9950    0.0000 C   0  0  0  0  0  0  0  0  0  0  0  0
   19.7006   -2.4951    0.0000 C   0  0  0  0  0  0  0  0  0  0  0  0
   14.6579   -0.9663    0.0000 C   0  0  0  0  0  0  0  0  0  0  0  0
   14.1848   -2.3897    0.0000 O   0  0  0  0  0  0  0  0  0  0  0  0
   13.6618    0.1552    0.0000 N   0  0  0  0  0  0  0  0  0  0  0  0
   12.1925   -0.1467    0.0000 C   0  0  0  0  0  0  0  0  0  0  0  0
   11.7194   -1.5702    0.0000 C   0  0  0  0  0  0  0  0  0  0  0  0
   10.2501   -1.8721    0.0000 C   0  0  0  0  0  0  0  0  0  0  0  0
    9.7769   -3.2955    0.0000 N   0  0  0  0  0  0  0  0  0  0  0  0
    9.3981   -0.6376    0.0000 O   0  0  0  0  0  0  0  0  0  0  0  0
   11.1964    0.9747    0.0000 C   0  0  0  0  0  0  0  0  0  0  0  0
    9.7271    0.6728    0.0000 O   0  0  0  0  0  0  0  0  0  0  0  0
   11.6695    2.3981    0.0000 N   0  0  0  0  0  0  0  0  0  0  0  0
   10.6734    3.5196    0.0000 C   0  0  0  0  0  0  0  0  0  0  0  0
   11.1465    4.9430    0.0000 C   0  0  0  0  0  0  0  0  0  0  0  0
   10.1504    6.0645    0.0000 C   0  0  0  0  0  0  0  0  0  0  0  0
    8.6811    5.7626    0.0000 O   0  0  0  0  0  0  0  0  0  0  0  0
   10.6235    7.4879    0.0000 O   0  0  0  0  0  0  0  0  0  0  0  0
    9.2041    3.2177    0.0000 C   0  0  0  0  0  0  0  0  0  0  0  0
    8.2079    4.3391    0.0000 O   0  0  0  0  0  0  0  0  0  0  0  0
    8.7309    1.7943    0.0000 N   0  0  0  0  0  0  0  0  0  0  0  0
    7.2616    1.4923    0.0000 C   0  0  0  0  0  0  0  0  0  0  0  0
    7.4134    0.0000    0.0000 C   0  0  0  0  0  0  0  0  0  0  0  0
    8.9022    0.1828    0.0000 O   0  0  0  0  0  0  0  0  0  0  0  0
    7.2616   -1.4923    0.0000 N   0  0  0  0  0  0  0  0  0  0  0  0
    6.8126   -2.9235    0.0000 C   0  0  0  0  0  0  0  0  0  0  0  0
    6.0846   -4.2350    0.0000 C   0  0  0  0  0  0  0  0  0  0  0  0
    7.3158   -5.0919    0.0000 O   0  0  0  0  0  0  0  0  0  0  0  0
    5.1076   -5.3732    0.0000 N   0  0  0  0  0  0  0  0  0  0  0  0
    3.9214   -6.2913    0.0000 C   0  0  0  0  0  0  0  0  0  0  0  0
    4.7149   -7.5643    0.0000 C   0  0  0  0  0  0  0  0  0  0  0  0
    4.0092   -8.8879    0.0000 C   0  0  0  0  0  0  0  0  0  0  0  0
    4.8026  -10.1609    0.0000 C   0  0  0  0  0  0  0  0  0  0  0  0
    4.0969  -11.4845    0.0000 N   0  0  0  0  0  0  0  0  0  0  0  0
    2.5747   -6.9519    0.0000 C   0  0  0  0  0  0  0  0  0  0  0  0
    3.0957   -8.3585    0.0000 O   0  0  0  0  0  0  0  0  0  0  0  0
    1.1226   -7.3279    0.0000 N   0  0  0  0  0  0  0  0  0  0  0  0
   -0.3755   -7.4039    0.0000 C   0  0  0  0  0  0  0  0  0  0  0  0
   -0.4515   -8.9019    0.0000 C   0  0  0  0  0  0  0  0  0  0  0  0
   -1.7868   -9.5852    0.0000 C   0  0  0  0  0  0  0  0  0  0  0  0
   -2.8798   -9.0544    0.0000 O   0  0  0  0  0  0  0  0  0  0  0  0
   -1.8628  -11.0833    0.0000 O   0  0  0  0  0  0  0  0  0  0  0  0
   -1.8582   -7.1767    0.0000 C   0  0  0  0  0  0  0  0  0  0  0  0
   -2.3038   -8.3071    0.0000 O   0  0  0  0  0  0  0  0  0  0  0  0
   -3.2648   -6.6558    0.0000 N   0  0  0  0  0  0  0  0  0  0  0  0
   -4.5378   -5.8623    0.0000 C   0  0  0  0  0  0  0  0  0  0  0  0
   -5.4559   -7.0485    0.0000 C   0  0  0  0  0  0  0  0  0  0  0  0
   -5.6250   -4.8289    0.0000 C   0  0  0  0  0  0  0  0  0  0  0  0
   -6.7631   -5.8059    0.0000 O   0  0  0  0  0  0  0  0  0  0  0  0
   -6.4819   -3.5977    0.0000 N   0  0  0  0  0  0  0  0  0  0  0  0
   -7.0734   -2.2193    0.0000 C   0  0  0  0  0  0  0  0  0  0  0  0
   -8.5046   -2.6683    0.0000 C   0  0  0  0  0  0  0  0  0  0  0  0
   -9.6091   -1.6534    0.0000 C   0  0  0  0  0  0  0  0  0  0  0  0
   -9.4910   -0.4442    0.0000 O   0  0  0  0  0  0  0  0  0  0  0  0
  -11.0403   -2.1024    0.0000 O   0  0  0  0  0  0  0  0  0  0  0  0
   -7.3754   -0.7500    0.0000 C   0  0  0  0  0  0  0  0  0  0  0  0
   -8.5901   -0.7247    0.0000 O   0  0  0  0  0  0  0  0  0  0  0  0
   -7.3754    0.7500    0.0000 N   0  0  0  0  0  0  0  0  0  0  0  0
   -7.0734    2.2193    0.0000 C   0  0  0  0  0  0  0  0  0  0  0  0
   -6.4819    3.5977    0.0000 C   0  0  0  0  0  0  0  0  0  0  0  0
   -7.7934    4.3257    0.0000 O   0  0  0  0  0  0  0  0  0  0  0  0
   -5.6250    4.8289    0.0000 N   0  0  0  0  0  0  0  0  0  0  0  0
   -4.5378    5.8623    0.0000 C   0  0  0  0  0  0  0  0  0  0  0  0
   -5.4559    7.0485    0.0000 C   0  0  0  0  0  0  0  0  0  0  0  0
   -4.8878    8.4367    0.0000 O   0  0  0  0  0  0  0  0  0  0  0  0
   -3.2648    6.6558    0.0000 C   0  0  0  0  0  0  0  0  0  0  0  0
   -3.9254    8.0025    0.0000 O   0  0  0  0  0  0  0  0  0  0  0  0
   -1.8582    7.1767    0.0000 N   0  0  0  0  0  0  0  0  0  0  0  0
   -0.3755    7.4039    0.0000 C   0  0  0  0  0  0  0  0  0  0  0  0
   -0.4515    8.9019    0.0000 C   0  0  0  0  0  0  0  0  0  0  0  0
    0.8079    9.7168    0.0000 C   0  0  0  0  0  0  0  0  0  0  0  0
   -1.7868    9.5852    0.0000 C   0  0  0  0  0  0  0  0  0  0  0  0
   -1.8628   11.0833    0.0000 C   0  0  0  0  0  0  0  0  0  0  0  0
   -0.6034   11.8981    0.0000 O   0  0  0  0  0  0  0  0  0  0  0  0
   -3.1981   11.7665    0.0000 O   0  0  0  0  0  0  0  0  0  0  0  0
    1.1226    7.3279    0.0000 C   0  0  0  0  0  0  0  0  0  0  0  0
    1.3497    8.8106    0.0000 O   0  0  0  0  0  0  0  0  0  0  0  0
    2.5747    6.9519    0.0000 N   0  0  0  0  0  0  0  0  0  0  0  0
    3.9214    6.2913    0.0000 C   0  0  0  0  0  0  0  0  0  0  0  0
    4.7149    7.5643    0.0000 C   0  0  0  0  0  0  0  0  0  0  0  0
    6.2140    7.5136    0.0000 C   0  0  0  0  0  0  0  0  0  0  0  0
    6.9120    6.5192    0.0000 O   0  0  0  0  0  0  0  0  0  0  0  0
    7.0075    8.7866    0.0000 C   0  0  0  0  0  0  0  0  0  0  0  0
    8.5066    8.7359    0.0000 C   0  0  0  0  0  0  0  0  0  0  0  0
    9.3000   10.0089    0.0000 C   0  0  0  0  0  0  0  0  0  0  0  0
    8.5943   11.3325    0.0000 C   0  0  0  0  0  0  0  0  0  0  0  0
    7.0952   11.3832    0.0000 C   0  0  0  0  0  0  0  0  0  0  0  0
    6.3018   10.1102    0.0000 C   0  0  0  0  0  0  0  0  0  0  0  0
    4.8026   10.1609    0.0000 N   0  0  0  0  0  0  0  0  0  0  0  0
    5.1076    5.3732    0.0000 C   0  0  0  0  0  0  0  0  0  0  0  0
    6.0458    6.1452    0.0000 O   0  0  0  0  0  0  0  0  0  0  0  0
    6.0846    4.2350    0.0000 O   0  0  0  0  0  0  0  0  0  0  0  0
    6.8126    2.9235    0.0000 C   0  0  0  0  0  0  0  0  0  0  0  0
    8.1910    3.5150    0.0000 C   0  0  0  0  0  0  0  0  0  0  0  0
  1  2  1  0
  2  3  1  0
  3  4  1  0
  4  5  1  0
  5  6  1  0
  6  7  1  0
  7  8  1  0
  8  9  1  0
  9 10  1  0
 10 11  2  0
 10 12  1  0
 12 13  1  0
 13 14  1  1
 14 15  1  0
 15 16  2  0
 16 17  1  0
 17 18  1  0
 18 19  2  0
 19 20  1  0
 20 21  2  0
 21 22  1  0
 22 23  2  0
 13 24  1  0
 24 25  2  0
 24 26  1  0
 26 27  1  0
 27 28  1  1
 28 29  1  0
 29 30  1  0
 29 31  2  0
 27 32  1  0
 32 33  2  0
 32 34  1  0
 34 35  1  0
 35 36  1  6
 36 37  1  0
 37 38  2  0
 37 39  1  0
 35 40  1  0
 40 41  2  0
 40 42  1  0
 43 42  1  6
 43 44  1  0
 44 45  2  0
 44 46  1  0
 46 47  1  0
 47 48  1  0
 48 49  2  0
 48 50  1  0
 50 51  1  0
 51 52  1  1
 52 53  1  0
 53 54  1  0
 54 55  1  0
 51 56  1  0
 56 57  2  0
 56 58  1  0
 58 59  1  0
 59 60  1  1
 60 61  1  0
 61 62  2  0
 61 63  1  0
 59 64  1  0
 64 65  2  0
 64 66  1  0
 66 67  1  0
 67 68  1  6
 67 69  1  0
 69 70  2  0
 69 71  1  0
 71 72  1  0
 72 73  1  1
 73 74  1  0
 74 75  2  0
 74 76  1  0
 72 77  1  0
 77 78  2  0
 77 79  1  0
 79 80  1  0
 80 81  1  0
 81 82  2  0
 81 83  1  0
 83 84  1  0
 84 85  1  6
 85 86  1  0
 84 87  1  0
 87 88  2  0
 87 89  1  0
 90 89  1  1
 90 91  1  0
 91 92  1  1
 91 93  1  0
 93 94  1  0
 94 95  2  0
 94 96  1  0
 90 97  1  0
 97 98  2  0
 97 99  1  0
 99100  1  0
100101  1  1
101102  1  0
102103  2  0
102104  1  0
104105  2  0
105106  1  0
106107  2  0
107108  1  0
108109  2  0
109110  1  0
100111  1  0
111112  2  0
111113  1  0
113114  1  0
114115  1  6
 23 15  1  0
114 43  1  0
 23 18  1  0
109104  1  0
M  END
>  <assay_description>  (53) 
Inhibition of human MRP2 overexpressed in Sf9 cell membrane vesicles assessed as uptake of [3H]-estradiol-17beta-D-glucuronide in presence of ATP and GSH measured after 20 mins by membrane vesicle transport assay

>  <molecule_pref_name>  (53) 
DAPTOMYCIN

>  <canonical_smiles>  (53) 
CCCCCCCCCC(=O)N[C@@H](Cc1c[nH]c2ccccc12)C(=O)N[C@@H](CC(N)=O)C(=O)N[C@@H](CC(=O)O)C(=O)N[C@@H]1C(=O)NCC(=O)N[C@@H](CCCN)C(=O)N[C@@H](CC(=O)O)C(=O)N[C@H](C)C(=O)N[C@@H](CC(=O)O)C(=O)NCC(=O)N[C@H](CO)C(=O)N[C@@H]([C@H](C)CC(=O)O)C(=O)N[C@@H](CC(=O)c2ccccc2N)C(=O)O[C@@H]1C

>  <pchembl_value>  (53) 
4.54

>  <standard_type>  (53) 
IC50

>  <standard_relation>  (53) 
=

>  <standard_value>  (53) 
29100.0

>  <standard_units>  (53) 
nM

>  <target_pref_name>  (53) 
Canalicular multispecific organic anion transporter 1

>  <target_organism>  (53) 
Homo sapiens

$$$$
CHEMBL813
     RDKit          2D

 30 32  0  0  0  0  0  0  0  0999 V2000
   -5.6836   -2.4482    0.0000 C   0  0  0  0  0  0  0  0  0  0  0  0
   -4.2164   -2.1363    0.0000 C   0  0  0  0  0  0  0  0  0  0  0  0
   -3.2127   -3.2511    0.0000 C   0  0  0  0  0  0  0  0  0  0  0  0
   -1.7455   -2.9392    0.0000 C   0  0  0  0  0  0  0  0  0  0  0  0
   -0.7418   -4.0539    0.0000 C   0  0  0  0  0  0  0  0  0  0  0  0
   -1.0537   -5.5211    0.0000 N   0  0  0  0  0  0  0  0  0  0  0  0
    0.2454   -6.2711    0.0000 C   0  0  0  0  0  0  0  0  0  0  0  0
    1.3601   -5.2674    0.0000 C   0  0  0  0  0  0  0  0  0  0  0  0
    2.8273   -5.5793    0.0000 C   0  0  0  0  0  0  0  0  0  0  0  0
    3.2909   -7.0059    0.0000 C   0  0  0  0  0  0  0  0  0  0  0  0
    2.2872   -8.1206    0.0000 C   0  0  0  0  0  0  0  0  0  0  0  0
    2.7507   -9.5472    0.0000 C   0  0  0  0  0  0  0  0  0  0  0  0
    4.1773  -10.0107    0.0000 C   0  0  0  0  0  0  0  0  0  0  0  0
    4.1773  -11.5107    0.0000 C   0  0  0  0  0  0  0  0  0  0  0  0
    2.7507  -11.9742    0.0000 C   0  0  0  0  0  0  0  0  0  0  0  0
    1.8690  -10.7607    0.0000 S   0  0  0  0  0  0  0  0  0  0  0  0
    4.7581   -7.3178    0.0000 C   0  0  0  0  0  0  0  0  0  0  0  0
    5.7618   -6.2030    0.0000 O   0  0  0  0  0  0  0  0  0  0  0  0
    5.2216   -8.7443    0.0000 O   0  0  0  0  0  0  0  0  0  0  0  0
    0.7500   -3.8971    0.0000 N   0  0  0  0  0  0  0  0  0  0  0  0
    1.5000   -2.5981    0.0000 C   0  0  0  0  0  0  0  0  0  0  0  0
    0.7500   -1.2990    0.0000 C   0  0  0  0  0  0  0  0  0  0  0  0
    1.5000    0.0000    0.0000 C   0  0  0  0  0  0  0  0  0  0  0  0
    0.7500    1.2990    0.0000 C   0  0  0  0  0  0  0  0  0  0  0  0
   -0.7500    1.2990    0.0000 C   0  0  0  0  0  0  0  0  0  0  0  0
   -1.5000    2.5981    0.0000 C   0  0  0  0  0  0  0  0  0  0  0  0
   -3.0000    2.5981    0.0000 O   0  0  0  0  0  0  0  0  0  0  0  0
   -0.7500    3.8971    0.0000 O   0  0  0  0  0  0  0  0  0  0  0  0
   -1.5000    0.0000    0.0000 C   0  0  0  0  0  0  0  0  0  0  0  0
   -0.7500   -1.2990    0.0000 C   0  0  0  0  0  0  0  0  0  0  0  0
  1  2  1  0
  2  3  1  0
  3  4  1  0
  4  5  1  0
  5  6  2  0
  6  7  1  0
  7  8  2  0
  8  9  1  0
  9 10  2  0
 10 11  1  0
 11 12  1  0
 12 13  2  0
 13 14  1  0
 14 15  2  0
 15 16  1  0
 10 17  1  0
 17 18  2  0
 17 19  1  0
  8 20  1  0
 20 21  1  0
 21 22  1  0
 22 23  2  0
 23 24  1  0
 24 25  2  0
 25 26  1  0
 26 27  2  0
 26 28  1  0
 25 29  1  0
 29 30  2  0
 20  5  1  0
 30 22  1  0
 16 12  1  0
M  END
>  <assay_description>  (54) 
Inhibition of human MRP2 overexpressed in Sf9 cell membrane vesicles assessed as uptake of [3H]-estradiol-17beta-D-glucuronide in presence of ATP and GSH measured after 20 mins by membrane vesicle transport assay

>  <molecule_pref_name>  (54) 
EPROSARTAN

>  <canonical_smiles>  (54) 
CCCCc1ncc(/C=C(\Cc2cccs2)C(=O)O)n1Cc1ccc(C(=O)O)cc1

>  <pchembl_value>  (54) 
4.24

>  <standard_type>  (54) 
IC50

>  <standard_relation>  (54) 
=

>  <standard_value>  (54) 
57900.0

>  <standard_units>  (54) 
nM

>  <target_pref_name>  (54) 
Canalicular multispecific organic anion transporter 1

>  <target_organism>  (54) 
Homo sapiens

$$$$
CHEMBL1232
     RDKit          2D

 34 36  0  0  0  0  0  0  0  0999 V2000
    3.3107   -1.2990    0.0000 C   0  0  0  0  0  0  0  0  0  0  0  0
    2.5607    0.0000    0.0000 C   0  0  0  0  0  0  0  0  0  0  0  0
    3.3107    1.2990    0.0000 O   0  0  0  0  0  0  0  0  0  0  0  0
    1.0607    0.0000    0.0000 C   0  0  0  0  0  0  0  0  0  0  0  0
   -0.0000   -1.0607    0.0000 C   0  0  0  0  0  0  0  0  0  0  0  0
   -0.0000   -2.5607    0.0000 O   0  0  0  0  0  0  0  0  0  0  0  0
   -1.0607    0.0000    0.0000 N   0  0  0  0  0  0  0  0  0  0  0  0
   -2.3972    0.6810    0.0000 C   0  0  0  0  0  0  0  0  0  0  0  0
   -3.7337    0.0000    0.0000 C   0  0  0  0  0  0  0  0  0  0  0  0
   -3.8122   -1.4979    0.0000 O   0  0  0  0  0  0  0  0  0  0  0  0
   -4.9917    0.8170    0.0000 O   0  0  0  0  0  0  0  0  0  0  0  0
   -2.1625    2.1625    0.0000 C   0  0  0  0  0  0  0  0  0  0  0  0
   -3.2232    3.2232    0.0000 S   0  0  0  0  0  0  0  0  0  0  0  0
   -2.8349    4.6721    0.0000 C   0  0  0  0  0  0  0  0  0  0  0  0
   -3.7789    5.8378    0.0000 C   0  0  0  0  0  0  0  0  0  0  0  0
   -2.9620    7.0958    0.0000 N   0  0  0  0  0  0  0  0  0  0  0  0
   -1.5131    6.7076    0.0000 C   0  0  0  0  0  0  0  0  0  0  0  0
   -0.3474    7.6515    0.0000 C   0  0  0  0  0  0  0  0  0  0  0  0
   -0.5820    9.1331    0.0000 O   0  0  0  0  0  0  0  0  0  0  0  0
    1.0530    7.1140    0.0000 N   0  0  0  0  0  0  0  0  0  0  0  0
    2.2187    8.0580    0.0000 C   0  0  0  0  0  0  0  0  0  0  0  0
    3.6191    7.5204    0.0000 C   0  0  0  0  0  0  0  0  0  0  0  0
    4.7848    8.4644    0.0000 C   0  0  0  0  0  0  0  0  0  0  0  0
    4.5502    9.9459    0.0000 C   0  0  0  0  0  0  0  0  0  0  0  0
    3.1498   10.4835    0.0000 C   0  0  0  0  0  0  0  0  0  0  0  0
    2.9151   11.9650    0.0000 C   0  0  0  0  0  0  0  0  0  0  0  0
    1.5148   12.5026    0.0000 O   0  0  0  0  0  0  0  0  0  0  0  0
    4.0809   12.9090    0.0000 O   0  0  0  0  0  1  0  0  0  0  0  0
    1.9841    9.5395    0.0000 C   0  0  0  0  0  0  0  0  0  0  0  0
   -1.4346    5.2096    0.0000 C   0  0  0  0  0  0  0  0  0  0  0  0
   -0.6810    2.3972    0.0000 C   0  0  0  0  0  0  0  0  0  0  0  0
    0.0000    3.7337    0.0000 C   0  0  0  0  0  0  0  0  0  0  0  0
    0.0000    1.0607    0.0000 C   0  0  0  0  0  0  0  0  0  0  0  0
    5.7848    0.0000    0.0000 Na  0  0  0  0  0 15  0  0  0  0  0  0
  2  1  1  6
  2  3  1  0
  2  4  1  0
  4  5  1  1
  5  6  2  0
  5  7  1  0
  7  8  1  0
  8  9  1  0
  9 10  2  0
  9 11  1  0
  8 12  2  0
 12 13  1  0
 14 13  1  6
 14 15  1  0
 15 16  1  0
 16 17  1  0
 17 18  1  6
 18 19  2  0
 18 20  1  0
 20 21  1  0
 21 22  2  0
 22 23  1  0
 23 24  2  0
 24 25  1  0
 25 26  1  0
 26 27  2  0
 26 28  1  0
 25 29  2  0
 17 30  1  0
 12 31  1  0
 31 32  1  6
 31 33  1  0
 33  4  1  0
 33  7  1  6
 30 14  1  0
 29 21  1  0
M  CHG  2  28  -1  34   1
M  END
>  <assay_description>  (55) 
Inhibition of human MRP2 overexpressed in Sf9 cell membrane vesicles assessed as uptake of [3H]-estradiol-17beta-D-glucuronide in presence of ATP and GSH measured after 20 mins by membrane vesicle transport assay

>  <molecule_pref_name>  (55) 
ERTAPENEM SODIUM

>  <canonical_smiles>  (55) 
C[C@@H](O)[C@H]1C(=O)N2C(C(=O)O)=C(S[C@@H]3CN[C@H](C(=O)Nc4cccc(C(=O)[O-])c4)C3)[C@H](C)[C@H]12.[Na+]

>  <pchembl_value>  (55) 
4.25

>  <standard_type>  (55) 
IC50

>  <standard_relation>  (55) 
=

>  <standard_value>  (55) 
56200.0

>  <standard_units>  (55) 
nM

>  <target_pref_name>  (55) 
Canalicular multispecific organic anion transporter 1

>  <target_organism>  (55) 
Homo sapiens

$$$$
CHEMBL456
     RDKit          2D

 19 19  0  0  0  0  0  0  0  0999 V2000
    3.0000   -2.5981    0.0000 C   0  0  0  0  0  0  0  0  0  0  0  0
    3.7500   -1.2990    0.0000 C   0  0  0  0  0  0  0  0  0  0  0  0
    5.2500   -1.2990    0.0000 C   0  0  0  0  0  0  0  0  0  0  0  0
    6.0000   -2.5981    0.0000 C   0  0  0  0  0  0  0  0  0  0  0  0
    3.0000    0.0000    0.0000 C   0  0  0  0  0  0  0  0  0  0  0  0
    3.7500    1.2990    0.0000 O   0  0  0  0  0  0  0  0  0  0  0  0
    1.5000    0.0000    0.0000 C   0  0  0  0  0  0  0  0  0  0  0  0
    0.7500   -1.2990    0.0000 C   0  0  0  0  0  0  0  0  0  0  0  0
   -0.7500   -1.2990    0.0000 C   0  0  0  0  0  0  0  0  0  0  0  0
   -1.5000    0.0000    0.0000 C   0  0  0  0  0  0  0  0  0  0  0  0
   -3.0000    0.0000    0.0000 O   0  0  0  0  0  0  0  0  0  0  0  0
   -3.7500    1.2990    0.0000 C   0  0  0  0  0  0  0  0  0  0  0  0
   -5.2500    1.2990    0.0000 C   0  0  0  0  0  0  0  0  0  0  0  0
   -6.0000    0.0000    0.0000 O   0  0  0  0  0  0  0  0  0  0  0  0
   -6.0000    2.5981    0.0000 O   0  0  0  0  0  0  0  0  0  0  0  0
   -0.7500    1.2990    0.0000 C   0  0  0  0  0  0  0  0  0  0  0  0
   -1.5000    2.5981    0.0000 Cl  0  0  0  0  0  0  0  0  0  0  0  0
    0.7500    1.2990    0.0000 C   0  0  0  0  0  0  0  0  0  0  0  0
    1.5000    2.5981    0.0000 Cl  0  0  0  0  0  0  0  0  0  0  0  0
  1  2  2  0
  2  3  1  0
  3  4  1  0
  2  5  1  0
  5  6  2  0
  5  7  1  0
  7  8  2  0
  8  9  1  0
  9 10  2  0
 10 11  1  0
 11 12  1  0
 12 13  1  0
 13 14  2  0
 13 15  1  0
 10 16  1  0
 16 17  1  0
 16 18  2  0
 18 19  1  0
 18  7  1  0
M  END
>  <assay_description>  (56) 
Inhibition of human MRP2 overexpressed in Sf9 cell membrane vesicles assessed as uptake of [3H]-estradiol-17beta-D-glucuronide in presence of ATP and GSH measured after 20 mins by membrane vesicle transport assay

>  <molecule_pref_name>  (56) 
ETHACRYNIC ACID

>  <canonical_smiles>  (56) 
C=C(CC)C(=O)c1ccc(OCC(=O)O)c(Cl)c1Cl

>  <pchembl_value>  (56) 
5.42

>  <standard_type>  (56) 
IC50

>  <standard_relation>  (56) 
=

>  <standard_value>  (56) 
3850.0

>  <standard_units>  (56) 
nM

>  <target_pref_name>  (56) 
Canalicular multispecific organic anion transporter 1

>  <target_organism>  (56) 
Homo sapiens

$$$$
CHEMBL1200775
     RDKit          2D

 91 95  0  0  0  0  0  0  0  0999 V2000
    0.0000    8.5449    0.0000 C   0  0  0  0  0  0  0  0  0  0  0  0
    1.2990    9.2949    0.0000 C   0  0  0  0  0  0  0  0  0  0  0  0
    1.2990   10.7949    0.0000 O   0  0  0  0  0  0  0  0  0  0  0  0
    2.5981    8.5449    0.0000 O   0  0  0  0  0  0  0  0  0  0  0  0
  -10.2561    2.2841    0.0000 C   0  0  0  0  0  0  0  0  0  0  0  0
   -9.6460    3.6544    0.0000 C   0  0  0  0  0  0  0  0  0  0  0  0
   -8.1542    3.8112    0.0000 N   0  0  0  0  0  0  0  0  0  0  0  0
   -7.5441    5.1815    0.0000 C   0  0  0  0  0  0  0  0  0  0  0  0
   -8.4258    6.3951    0.0000 O   0  0  0  0  0  0  0  0  0  0  0  0
   -6.0524    5.3383    0.0000 C   0  0  0  0  0  0  0  0  0  0  0  0
   -5.3024    6.6374    0.0000 C   0  0  0  0  0  0  0  0  0  0  0  0
   -3.8351    6.3255    0.0000 C   0  0  0  0  0  0  0  0  0  0  0  0
   -3.6783    4.8337    0.0000 C   0  0  0  0  0  0  0  0  0  0  0  0
   -5.0487    4.2236    0.0000 N   0  0  0  0  0  0  0  0  0  0  0  0
   -5.3605    2.7564    0.0000 C   0  0  0  0  0  0  0  0  0  0  0  0
   -6.1557    2.7008    0.0000 O   0  0  0  0  0  0  0  0  0  0  0  0
   -4.2458    1.7527    0.0000 C   0  0  0  0  0  0  0  0  0  0  0  0
   -2.8192    2.2162    0.0000 C   0  0  0  0  0  0  0  0  0  0  0  0
   -2.5074    3.6834    0.0000 C   0  0  0  0  0  0  0  0  0  0  0  0
   -1.0808    4.1470    0.0000 C   0  0  0  0  0  0  0  0  0  0  0  0
   -0.7689    5.6142    0.0000 N   0  0  0  0  0  0  0  0  0  0  0  0
    0.6577    6.0777    0.0000 C   0  0  0  0  0  0  0  0  0  0  0  0
    1.7724    5.0740    0.0000 N   0  0  0  0  0  0  0  0  0  0  0  0
    0.9695    7.5449    0.0000 N   0  0  0  0  0  0  0  0  0  0  0  0
   -4.5577    0.2855    0.0000 N   0  0  0  0  0  0  0  0  0  0  0  0
   -5.9843   -0.1781    0.0000 C   0  0  0  0  0  0  0  0  0  0  0  0
   -6.2961   -1.6453    0.0000 O   0  0  0  0  0  0  0  0  0  0  0  0
   -7.0990    0.8256    0.0000 C   0  0  0  0  0  0  0  0  0  0  0  0
   -6.7871    2.2929    0.0000 C   0  0  0  0  0  0  0  0  0  0  0  0
   -5.3605    2.7564    0.0000 C   0  0  0  0  0  0  0  0  0  0  0  0
   -5.4130    4.2555    0.0000 C   0  0  0  0  0  0  0  0  0  0  0  0
   -4.0361    2.0522    0.0000 C   0  0  0  0  0  0  0  0  0  0  0  0
   -8.5256    0.3621    0.0000 N   0  0  0  0  0  0  0  0  0  0  0  0
   -8.8374   -1.1051    0.0000 C   0  0  0  0  0  0  0  0  0  0  0  0
   -7.7227   -2.1088    0.0000 O   0  0  0  0  0  0  0  0  0  0  0  0
  -10.2640   -1.5686    0.0000 C   0  0  0  0  0  0  0  0  0  0  0  0
  -11.3787   -0.5649    0.0000 C   0  0  0  0  0  0  0  0  0  0  0  0
  -11.0669    0.9023    0.0000 C   0  0  0  0  0  0  0  0  0  0  0  0
  -12.1816    1.9060    0.0000 C   0  0  0  0  0  0  0  0  0  0  0  0
   -9.6403    1.3658    0.0000 C   0  0  0  0  0  0  0  0  0  0  0  0
  -10.5759   -3.0359    0.0000 N   0  0  0  0  0  0  0  0  0  0  0  0
   -9.4612   -4.0396    0.0000 C   0  0  0  0  0  0  0  0  0  0  0  0
   -8.0346   -3.5760    0.0000 O   0  0  0  0  0  0  0  0  0  0  0  0
   -9.7730   -5.5068    0.0000 C   0  0  0  0  0  0  0  0  0  0  0  0
  -11.1996   -5.9703    0.0000 C   0  0  0  0  0  0  0  0  0  0  0  0
  -12.3143   -4.9666    0.0000 C   0  0  0  0  0  0  0  0  0  0  0  0
  -12.0025   -3.4994    0.0000 C   0  0  0  0  0  0  0  0  0  0  0  0
  -13.1172   -2.4957    0.0000 C   0  0  0  0  0  0  0  0  0  0  0  0
  -14.5438   -2.9592    0.0000 C   0  0  0  0  0  0  0  0  0  0  0  0
  -15.6585   -1.9555    0.0000 O   0  0  0  0  0  0  0  0  0  0  0  0
  -14.8556   -4.4264    0.0000 C   0  0  0  0  0  0  0  0  0  0  0  0
  -13.7409   -5.4301    0.0000 C   0  0  0  0  0  0  0  0  0  0  0  0
   -8.6583   -6.5105    0.0000 N   0  0  0  0  0  0  0  0  0  0  0  0
   -7.2317   -6.0469    0.0000 C   0  0  0  0  0  0  0  0  0  0  0  0
   -6.9199   -4.5797    0.0000 O   0  0  0  0  0  0  0  0  0  0  0  0
   -6.1170   -7.0506    0.0000 C   0  0  0  0  0  0  0  0  0  0  0  0
   -6.4289   -8.5179    0.0000 C   0  0  0  0  0  0  0  0  0  0  0  0
   -7.8555   -8.9814    0.0000 O   0  0  0  0  0  0  0  0  0  0  0  0
   -4.6904   -6.5871    0.0000 N   0  0  0  0  0  0  0  0  0  0  0  0
   -4.3786   -5.1199    0.0000 C   0  0  0  0  0  0  0  0  0  0  0  0
   -5.4933   -4.1162    0.0000 O   0  0  0  0  0  0  0  0  0  0  0  0
   -2.9520   -4.6564    0.0000 C   0  0  0  0  0  0  0  0  0  0  0  0
   -2.6401   -3.1891    0.0000 C   0  0  0  0  0  0  0  0  0  0  0  0
   -1.2135   -2.7256    0.0000 C   0  0  0  0  0  0  0  0  0  0  0  0
   -0.0000   -3.6073    0.0000 C   0  0  0  0  0  0  0  0  0  0  0  0
    1.2135   -2.7256    0.0000 N   0  0  0  0  0  0  0  0  0  0  0  0
    0.7500   -1.2990    0.0000 C   0  0  0  0  0  0  0  0  0  0  0  0
    1.5000    0.0000    0.0000 C   0  0  0  0  0  0  0  0  0  0  0  0
    0.7500    1.2990    0.0000 C   0  0  0  0  0  0  0  0  0  0  0  0
   -0.7500    1.2990    0.0000 C   0  0  0  0  0  0  0  0  0  0  0  0
   -1.5000    0.0000    0.0000 C   0  0  0  0  0  0  0  0  0  0  0  0
   -0.7500   -1.2990    0.0000 C   0  0  0  0  0  0  0  0  0  0  0  0
   -1.8373   -5.6601    0.0000 N   0  0  0  0  0  0  0  0  0  0  0  0
   -2.1491   -7.1273    0.0000 C   0  0  0  0  0  0  0  0  0  0  0  0
   -3.5757   -7.5908    0.0000 O   0  0  0  0  0  0  0  0  0  0  0  0
   -1.0344   -8.1310    0.0000 C   0  0  0  0  0  0  0  0  0  0  0  0
   -1.3463   -9.5982    0.0000 C   0  0  0  0  0  0  0  0  0  0  0  0
   -0.2316  -10.6019    0.0000 C   0  0  0  0  0  0  0  0  0  0  0  0
    1.2357  -10.2900    0.0000 C   0  0  0  0  0  0  0  0  0  0  0  0
    1.9857  -11.5891    0.0000 N   0  0  0  0  0  0  0  0  0  0  0  0
    0.9820  -12.7038    0.0000 C   0  0  0  0  0  0  0  0  0  0  0  0
   -0.3884  -12.0937    0.0000 N   0  0  0  0  0  0  0  0  0  0  0  0
    0.3922   -7.6675    0.0000 N   0  0  0  0  0  0  0  0  0  0  0  0
    1.5069   -8.6712    0.0000 C   0  0  0  0  0  0  0  0  0  0  0  0
    1.5593  -10.1702    0.0000 O   0  0  0  0  0  0  0  0  0  0  0  0
    2.9335   -8.2076    0.0000 C   0  0  0  0  0  0  0  0  0  0  0  0
    3.3970   -6.7810    0.0000 C   0  0  0  0  0  0  0  0  0  0  0  0
    4.8970   -6.7810    0.0000 C   0  0  0  0  0  0  0  0  0  0  0  0
    5.3605   -8.2076    0.0000 C   0  0  0  0  0  0  0  0  0  0  0  0
    6.7871   -8.6712    0.0000 O   0  0  0  0  0  0  0  0  0  0  0  0
    4.1470   -9.0893    0.0000 N   0  0  0  0  0  0  0  0  0  0  0  0
  1  2  1  0
  2  3  2  0
  2  4  1  0
  5  6  1  0
  6  7  1  0
  7  8  1  0
  8  9  2  0
 10  8  1  6
 10 11  1  0
 11 12  1  0
 12 13  1  0
 13 14  1  0
 14 15  1  0
 15 16  2  0
 15 17  1  0
 17 18  1  6
 18 19  1  0
 19 20  1  0
 20 21  1  0
 21 22  1  0
 22 23  2  0
 22 24  1  0
 17 25  1  0
 25 26  1  0
 26 27  2  0
 26 28  1  0
 28 29  1  1
 29 30  1  0
 30 31  1  0
 30 32  1  0
 28 33  1  0
 33 34  1  0
 34 35  2  0
 34 36  1  0
 36 37  1  6
 37 38  1  0
 38 39  1  0
 38 40  1  0
 36 41  1  0
 41 42  1  0
 42 43  2  0
 42 44  1  0
 44 45  1  1
 45 46  1  0
 46 47  2  0
 47 48  1  0
 48 49  2  0
 49 50  1  0
 49 51  1  0
 51 52  2  0
 44 53  1  0
 53 54  1  0
 54 55  2  0
 54 56  1  0
 56 57  1  1
 57 58  1  0
 56 59  1  0
 59 60  1  0
 60 61  2  0
 60 62  1  0
 62 63  1  6
 63 64  1  0
 64 65  2  0
 65 66  1  0
 66 67  1  0
 67 68  2  0
 68 69  1  0
 69 70  2  0
 70 71  1  0
 71 72  2  0
 62 73  1  0
 73 74  1  0
 74 75  2  0
 74 76  1  0
 76 77  1  1
 77 78  1  0
 78 79  2  0
 79 80  1  0
 80 81  1  0
 81 82  2  0
 76 83  1  0
 83 84  1  0
 84 85  2  0
 86 84  1  6
 86 87  1  0
 87 88  1  0
 88 89  1  0
 89 90  2  0
 89 91  1  0
 14 10  1  0
 52 46  1  0
 72 64  1  0
 82 78  1  0
 91 86  1  0
 72 67  1  0
M  END
>  <assay_description>  (57) 
Inhibition of human MRP2 overexpressed in Sf9 cell membrane vesicles assessed as uptake of [3H]-estradiol-17beta-D-glucuronide in presence of ATP and GSH measured after 20 mins by membrane vesicle transport assay

>  <molecule_pref_name>  (57) 
LEUPROLIDE ACETATE

>  <canonical_smiles>  (57) 
CC(=O)O.CCNC(=O)[C@@H]1CCCN1C(=O)[C@H](CCCNC(=N)N)NC(=O)[C@H](CC(C)C)NC(=O)[C@@H](CC(C)C)NC(=O)[C@H](Cc1ccc(O)cc1)NC(=O)[C@H](CO)NC(=O)[C@H](Cc1c[nH]c2ccccc12)NC(=O)[C@H](Cc1c[nH]cn1)NC(=O)[C@@H]1CCC(=O)N1

>  <pchembl_value>  (57) 
4.10

>  <standard_type>  (57) 
IC50

>  <standard_relation>  (57) 
=

>  <standard_value>  (57) 
80200.0

>  <standard_units>  (57) 
nM

>  <target_pref_name>  (57) 
Canalicular multispecific organic anion transporter 1

>  <target_organism>  (57) 
Homo sapiens

$$$$
CHEMBL3040216
     RDKit          2D

 86 93  0  0  0  0  0  0  0  0999 V2000
    6.0000   -7.7942    0.0000 C   0  0  0  0  0  0  0  0  0  0  0  0
    5.2500   -6.4952    0.0000 C   0  0  0  0  0  0  0  0  0  0  0  0
    3.7500   -6.4952    0.0000 C   0  0  0  0  0  0  0  0  0  0  0  0
    3.0000   -5.1962    0.0000 C   0  0  0  0  0  0  0  0  0  0  0  0
    3.7500   -3.8971    0.0000 C   0  0  0  0  0  0  0  0  0  0  0  0
    3.0000   -2.5981    0.0000 C   0  0  0  0  0  0  0  0  0  0  0  0
    3.7500   -1.2990    0.0000 O   0  0  0  0  0  0  0  0  0  0  0  0
    1.5000   -2.5981    0.0000 N   0  0  0  0  0  0  0  0  0  0  0  0
    0.7500   -1.2990    0.0000 C   0  0  0  0  0  0  0  0  0  0  0  0
    1.5000    0.0000    0.0000 C   0  0  0  0  0  0  0  0  0  0  0  0
    0.7500    1.2990    0.0000 C   0  0  0  0  0  0  0  0  0  0  0  0
   -0.7500    1.2990    0.0000 C   0  0  0  0  0  0  0  0  0  0  0  0
   -1.5000    2.5981    0.0000 S   0  0  0  0  0  0  0  0  0  0  0  0
   -0.2010    3.3481    0.0000 O   0  0  0  0  0  0  0  0  0  0  0  0
   -2.7990    1.8481    0.0000 O   0  0  0  0  0  0  0  0  0  0  0  0
   -2.2500    3.8971    0.0000 O   0  0  0  0  0  0  0  0  0  0  0  0
   -1.5000    0.0000    0.0000 C   0  0  0  0  0  0  0  0  0  0  0  0
   -3.0000    0.0000    0.0000 C   0  0  0  0  0  0  0  0  0  0  0  0
   -3.7500   -1.2990    0.0000 C   0  0  0  0  0  0  0  0  0  0  0  0
   -5.2500   -1.2990    0.0000 S   0  0  0  0  0  0  0  0  0  0  0  0
   -5.2500    0.2010    0.0000 O   0  0  0  0  0  0  0  0  0  0  0  0
   -5.2500   -2.7990    0.0000 O   0  0  0  0  0  0  0  0  0  0  0  0
   -6.7500   -1.2990    0.0000 O   0  0  0  0  0  0  0  0  0  0  0  0
   -3.0000   -2.5981    0.0000 C   0  0  0  0  0  0  0  0  0  0  0  0
   -1.5000   -2.5981    0.0000 C   0  0  0  0  0  0  0  0  0  0  0  0
   -0.7500   -3.8971    0.0000 S   0  0  0  0  0  0  0  0  0  0  0  0
   -2.0490   -4.6471    0.0000 O   0  0  0  0  0  0  0  0  0  0  0  0
    0.5490   -3.1471    0.0000 O   0  0  0  0  0  0  0  0  0  0  0  0
    0.0000   -5.1962    0.0000 O   0  0  0  0  0  0  0  0  0  0  0  0
   -0.7500   -1.2990    0.0000 C   0  0  0  0  0  0  0  0  0  0  0  0
    5.2500   -3.8971    0.0000 C   0  0  0  0  0  0  0  0  0  0  0  0
    6.0000   -5.1962    0.0000 C   0  0  0  0  0  0  0  0  0  0  0  0
    7.5000   -5.1962    0.0000 N   0  0  0  0  0  0  0  0  0  0  0  0
    8.2500   -6.4952    0.0000 C   0  0  0  0  0  0  0  0  0  0  0  0
    7.5000   -7.7942    0.0000 O   0  0  0  0  0  0  0  0  0  0  0  0
    9.7500   -6.4952    0.0000 C   0  0  0  0  0  0  0  0  0  0  0  0
   10.5000   -7.7942    0.0000 C   0  0  0  0  0  0  0  0  0  0  0  0
   12.0000   -7.7942    0.0000 C   0  0  0  0  0  0  0  0  0  0  0  0
   12.7500   -6.4952    0.0000 C   0  0  0  0  0  0  0  0  0  0  0  0
   12.0000   -5.1962    0.0000 C   0  0  0  0  0  0  0  0  0  0  0  0
   12.7500   -3.8971    0.0000 N   0  0  0  0  0  0  0  0  0  0  0  0
   14.2500   -3.8971    0.0000 C   0  0  0  0  0  0  0  0  0  0  0  0
   15.0000   -5.1962    0.0000 O   0  0  0  0  0  0  0  0  0  0  0  0
   15.0000   -2.5981    0.0000 N   0  0  0  0  0  0  0  0  0  0  0  0
   16.5000   -2.5981    0.0000 C   0  0  0  0  0  0  0  0  0  0  0  0
   17.2500   -3.8971    0.0000 C   0  0  0  0  0  0  0  0  0  0  0  0
   18.7500   -3.8971    0.0000 C   0  0  0  0  0  0  0  0  0  0  0  0
   19.5000   -2.5981    0.0000 C   0  0  0  0  0  0  0  0  0  0  0  0
   18.7500   -1.2990    0.0000 C   0  0  0  0  0  0  0  0  0  0  0  0
   19.5000   -0.0000    0.0000 C   0  0  0  0  0  0  0  0  0  0  0  0
   18.7500    1.2990    0.0000 O   0  0  0  0  0  0  0  0  0  0  0  0
   21.0000   -0.0000    0.0000 N   0  0  0  0  0  0  0  0  0  0  0  0
   21.7500    1.2990    0.0000 C   0  0  0  0  0  0  0  0  0  0  0  0
   23.2500    1.2990    0.0000 C   0  0  0  0  0  0  0  0  0  0  0  0
   24.0000    2.5981    0.0000 C   0  0  0  0  0  0  0  0  0  0  0  0
   25.5000    2.5981    0.0000 C   0  0  0  0  0  0  0  0  0  0  0  0
   26.2500    3.8971    0.0000 O   0  0  0  0  0  0  0  0  0  0  0  0
   26.2500    1.2990    0.0000 N   0  0  0  0  0  0  0  0  0  0  0  0
   27.7500    1.2990    0.0000 C   0  0  0  0  0  0  0  0  0  0  0  0
   28.5000    2.5981    0.0000 C   0  0  0  0  0  0  0  0  0  0  0  0
   30.0000    2.5981    0.0000 C   0  0  0  0  0  0  0  0  0  0  0  0
   30.7500    1.2990    0.0000 C   0  0  0  0  0  0  0  0  0  0  0  0
   32.2500    1.2990    0.0000 S   0  0  0  0  0  0  0  0  0  0  0  0
   32.2500    2.7990    0.0000 O   0  0  0  0  0  0  0  0  0  0  0  0
   32.2500   -0.2010    0.0000 O   0  0  0  0  0  0  0  0  0  0  0  0
   33.7500    1.2990    0.0000 O   0  0  0  0  0  0  0  0  0  0  0  0
   30.0000   -0.0000    0.0000 C   0  0  0  0  0  0  0  0  0  0  0  0
   30.7500   -1.2990    0.0000 C   0  0  0  0  0  0  0  0  0  0  0  0
   30.0000   -2.5981    0.0000 C   0  0  0  0  0  0  0  0  0  0  0  0
   30.7500   -3.8971    0.0000 S   0  0  0  0  0  0  0  0  0  0  0  0
   29.4510   -4.6471    0.0000 O   0  0  0  0  0  0  0  0  0  0  0  0
   32.0490   -3.1471    0.0000 O   0  0  0  0  0  0  0  0  0  0  0  0
   31.5000   -5.1962    0.0000 O   0  0  0  0  0  0  0  0  0  0  0  0
   28.5000   -2.5981    0.0000 C   0  0  0  0  0  0  0  0  0  0  0  0
   27.7500   -1.2990    0.0000 C   0  0  0  0  0  0  0  0  0  0  0  0
   26.2500   -1.2990    0.0000 S   0  0  0  0  0  0  0  0  0  0  0  0
   26.2500   -2.7990    0.0000 O   0  0  0  0  0  0  0  0  0  0  0  0
   26.2500    0.2010    0.0000 O   0  0  0  0  0  0  0  0  0  0  0  0
   24.7500   -1.2990    0.0000 O   0  0  0  0  0  0  0  0  0  0  0  0
   28.5000   -0.0000    0.0000 C   0  0  0  0  0  0  0  0  0  0  0  0
   23.2500    3.8971    0.0000 C   0  0  0  0  0  0  0  0  0  0  0  0
   21.7500    3.8971    0.0000 C   0  0  0  0  0  0  0  0  0  0  0  0
   21.0000    2.5981    0.0000 C   0  0  0  0  0  0  0  0  0  0  0  0
   19.5000    2.5981    0.0000 C   0  0  0  0  0  0  0  0  0  0  0  0
   17.2500   -1.2990    0.0000 C   0  0  0  0  0  0  0  0  0  0  0  0
   10.5000   -5.1962    0.0000 C   0  0  0  0  0  0  0  0  0  0  0  0
  1  2  1  0
  2  3  2  0
  3  4  1  0
  4  5  1  0
  5  6  1  0
  6  7  2  0
  6  8  1  0
  8  9  2  0
  9 10  1  0
 10 11  1  0
 11 12  2  0
 12 13  1  0
 13 14  2  0
 13 15  2  0
 13 16  1  0
 12 17  1  0
 17 18  2  0
 18 19  1  0
 19 20  1  0
 20 21  2  0
 20 22  2  0
 20 23  1  0
 19 24  2  0
 24 25  1  0
 25 26  1  0
 26 27  2  0
 26 28  2  0
 26 29  1  0
 25 30  2  0
  5 31  2  0
 31 32  1  0
 32 33  2  0
 33 34  1  0
 34 35  2  0
 34 36  1  0
 36 37  2  0
 37 38  1  0
 38 39  2  0
 39 40  1  0
 40 41  2  0
 41 42  1  0
 42 43  2  0
 42 44  1  0
 44 45  2  0
 45 46  1  0
 46 47  2  0
 47 48  1  0
 48 49  2  0
 49 50  1  0
 50 51  2  0
 50 52  1  0
 52 53  2  0
 53 54  1  0
 54 55  1  0
 55 56  1  0
 56 57  2  0
 56 58  1  0
 58 59  2  0
 59 60  1  0
 60 61  1  0
 61 62  2  0
 62 63  1  0
 63 64  2  0
 63 65  2  0
 63 66  1  0
 62 67  1  0
 67 68  2  0
 68 69  1  0
 69 70  1  0
 70 71  2  0
 70 72  2  0
 70 73  1  0
 69 74  2  0
 74 75  1  0
 75 76  1  0
 76 77  2  0
 76 78  2  0
 76 79  1  0
 75 80  2  0
 55 81  2  0
 81 82  1  0
 82 83  2  0
 83 84  1  0
 49 85  1  0
 40 86  1  0
 32  2  1  0
 86 36  1  0
 30  9  1  0
 85 45  1  0
 30 17  1  0
 83 53  1  0
 80 59  1  0
 80 67  1  0
M  END
>  <assay_description>  (58) 
Inhibition of human MRP2 overexpressed in Sf9 cell membrane vesicles assessed as uptake of [3H]-estradiol-17beta-D-glucuronide in presence of ATP and GSH measured after 20 mins by membrane vesicle transport assay

>  <molecule_pref_name>  (58) 
None

>  <canonical_smiles>  (58) 
CC1=CCC(C(=O)/N=C2\CC=C(S(=O)(=O)O)c3cc(S(=O)(=O)O)cc(S(=O)(=O)O)c32)=C/C1=N/C(=O)C1=CC=C/C(=N\C(=O)/N=C2\C=CC=C(C(=O)/N=C3/CC(C(=O)/N=C4\CC=C(S(=O)(=O)O)c5cc(S(=O)(=O)O)cc(S(=O)(=O)O)c54)=CC=C3C)C2)C1

>  <pchembl_value>  (58) 
4.43

>  <standard_type>  (58) 
IC50

>  <standard_relation>  (58) 
=

>  <standard_value>  (58) 
36800.0

>  <standard_units>  (58) 
nM

>  <target_pref_name>  (58) 
Canalicular multispecific organic anion transporter 1

>  <target_organism>  (58) 
Homo sapiens

$$$$
CHEMBL1829174
     RDKit          2D

 37 40  0  0  0  0  0  0  0  0999 V2000
    3.0000  -10.3923    0.0000 C   0  0  0  0  0  0  0  0  0  0  0  0
    1.5000  -10.3923    0.0000 C   0  0  0  0  0  0  0  0  0  0  0  0
    0.7500  -11.6913    0.0000 C   0  0  0  0  0  0  0  0  0  0  0  0
   -0.7500  -11.6913    0.0000 C   0  0  0  0  0  0  0  0  0  0  0  0
   -1.5000  -12.9904    0.0000 O   0  0  0  0  0  0  0  0  0  0  0  0
   -3.0000  -12.9904    0.0000 C   0  0  0  0  0  0  0  0  0  0  0  0
   -3.7500  -14.2894    0.0000 C   0  0  0  0  0  0  0  0  0  0  0  0
   -5.2500  -14.2894    0.0000 C   0  0  0  0  0  0  0  0  0  0  0  0
   -6.0000  -15.5885    0.0000 S   0  0  0  0  0  0  0  0  0  0  0  0
   -6.7500  -16.8875    0.0000 C   0  0  0  0  0  0  0  0  0  0  0  0
   -4.7010  -16.3385    0.0000 O   0  0  0  0  0  0  0  0  0  0  0  0
   -7.2990  -14.8385    0.0000 O   0  0  0  0  0  0  0  0  0  0  0  0
   -1.5000  -10.3923    0.0000 C   0  0  0  0  0  0  0  0  0  0  0  0
   -0.7500   -9.0933    0.0000 C   0  0  0  0  0  0  0  0  0  0  0  0
   -1.5000   -7.7942    0.0000 C   0  0  0  0  0  0  0  0  0  0  0  0
    0.7500   -9.0933    0.0000 C   0  0  0  0  0  0  0  0  0  0  0  0
    1.5000   -7.7942    0.0000 C   0  0  0  0  0  0  0  0  0  0  0  0
    3.0000   -7.7942    0.0000 C   0  0  0  0  0  0  0  0  0  0  0  0
    3.7500   -6.4952    0.0000 C   0  0  0  0  0  0  0  0  0  0  0  0
    3.0000   -5.1962    0.0000 C   0  0  0  0  0  0  0  0  0  0  0  0
    1.5000   -5.1962    0.0000 C   0  0  0  0  0  0  0  0  0  0  0  0
    0.7500   -3.8971    0.0000 C   0  0  0  0  0  0  0  0  0  0  0  0
    1.5000   -2.5981    0.0000 O   0  0  0  0  0  0  0  0  0  0  0  0
    0.7500   -1.2990    0.0000 C   0  0  0  0  0  0  0  0  0  0  0  0
    1.5000    0.0000    0.0000 C   0  0  0  0  0  0  0  0  0  0  0  0
    0.7500    1.2990    0.0000 C   0  0  0  0  0  0  0  0  0  0  0  0
   -0.7500    1.2990    0.0000 C   0  0  0  0  0  0  0  0  0  0  0  0
   -1.5000    0.0000    0.0000 C   0  0  0  0  0  0  0  0  0  0  0  0
   -0.7500   -1.2990    0.0000 C   0  0  0  0  0  0  0  0  0  0  0  0
   -2.9672    0.3119    0.0000 O   0  0  0  0  0  0  0  0  0  0  0  0
   -3.1240    1.8037    0.0000 C   0  0  0  0  0  0  0  0  0  0  0  0
   -1.7537    2.4138    0.0000 C   0  0  0  0  0  0  0  0  0  0  0  0
   -1.4418    3.8810    0.0000 C   0  0  0  0  0  0  0  0  0  0  0  0
   -2.5565    4.8847    0.0000 C   0  0  0  0  0  0  0  0  0  0  0  0
   -3.9831    4.4211    0.0000 O   0  0  0  0  0  0  0  0  0  0  0  0
   -2.2447    6.3519    0.0000 O   0  0  0  0  0  0  0  0  0  0  0  0
    0.7500   -6.4952    0.0000 C   0  0  0  0  0  0  0  0  0  0  0  0
  1  2  1  0
  2  3  2  0
  3  4  1  0
  4  5  1  0
  5  6  1  0
  6  7  1  0
  7  8  1  0
  8  9  1  0
  9 10  1  0
  9 11  2  0
  9 12  2  0
  4 13  2  0
 13 14  1  0
 14 15  1  0
 14 16  2  0
 16 17  1  0
 17 18  2  0
 18 19  1  0
 19 20  2  0
 20 21  1  0
 21 22  1  0
 22 23  1  0
 23 24  1  0
 24 25  2  0
 25 26  1  0
 26 27  2  0
 27 28  1  0
 28 29  2  0
 28 30  1  0
 30 31  1  0
 31 32  1  0
 32 33  1  1
 33 34  1  0
 34 35  2  0
 34 36  1  0
 21 37  2  0
 16  2  1  0
 37 17  1  0
 29 24  1  0
 32 27  1  0
M  END
>  <assay_description>  (59) 
Inhibition of human MRP2

>  <molecule_pref_name>  (59) 
FASIGLIFAM

>  <canonical_smiles>  (59) 
Cc1cc(OCCCS(C)(=O)=O)cc(C)c1-c1cccc(COc2ccc3c(c2)OC[C@H]3CC(=O)O)c1

>  <pchembl_value>  (59) 
5.62

>  <standard_type>  (59) 
IC50

>  <standard_relation>  (59) 
=

>  <standard_value>  (59) 
2410.0

>  <standard_units>  (59) 
nM

>  <target_pref_name>  (59) 
Canalicular multispecific organic anion transporter 1

>  <target_organism>  (59) 
Homo sapiens

$$$$
