CHEMBL90555
     RDKit          2D

 60 68  0  0  0  0  0  0  0  0999 V2000
   -6.0861   -9.7526    0.0000 C   0  0  0  0  0  0  0  0  0  0  0  0
   -5.6727   -8.3108    0.0000 C   0  0  0  0  0  0  0  0  0  0  0  0
   -4.2172   -7.9479    0.0000 C   0  0  0  0  0  0  0  0  0  0  0  0
   -4.1126   -9.4442    0.0000 O   0  0  0  0  0  0  0  0  0  0  0  0
   -2.7255   -8.1047    0.0000 C   0  0  0  0  0  0  0  0  0  0  0  0
   -1.6650   -7.0210    0.0000 C   0  0  0  0  0  0  0  0  0  0  0  0
   -3.1069   -6.6076    0.0000 C   0  0  0  0  0  0  0  0  0  0  0  0
   -3.9457   -5.3640    0.0000 N   0  0  0  0  0  0  0  0  0  0  0  0
   -3.7889   -3.8722    0.0000 C   0  0  0  0  0  0  0  0  0  0  0  0
   -2.7099   -2.8303    0.0000 C   0  0  0  0  0  0  0  0  0  0  0  0
   -1.2135   -2.7256    0.0000 C   0  0  0  0  0  0  0  0  0  0  0  0
   -0.0000   -3.6073    0.0000 C   0  0  0  0  0  0  0  0  0  0  0  0
    1.2135   -2.7256    0.0000 N   0  0  0  0  0  0  0  0  0  0  0  0
    0.7500   -1.2990    0.0000 C   0  0  0  0  0  0  0  0  0  0  0  0
    1.5000    0.0000    0.0000 C   0  0  0  0  0  0  0  0  0  0  0  0
    0.7500    1.2990    0.0000 C   0  0  0  0  0  0  0  0  0  0  0  0
   -0.7500    1.2990    0.0000 C   0  0  0  0  0  0  0  0  0  0  0  0
   -1.5000   -0.0000    0.0000 C   0  0  0  0  0  0  0  0  0  0  0  0
   -0.7500   -1.2990    0.0000 C   0  0  0  0  0  0  0  0  0  0  0  0
    0.3629   -5.0627    0.0000 C   0  0  0  0  0  0  0  0  0  0  0  0
    1.4658   -6.0793    0.0000 C   0  0  0  0  0  0  0  0  0  0  0  0
    2.9633   -5.9922    0.0000 O   0  0  0  0  0  0  0  0  0  0  0  0
    1.1369   -7.5428    0.0000 O   0  0  0  0  0  0  0  0  0  0  0  0
    2.2399   -8.5594    0.0000 C   0  0  0  0  0  0  0  0  0  0  0  0
    1.6531   -4.2977    0.0000 C   0  0  0  0  0  0  0  0  0  0  0  0
    2.9608   -5.0325    0.0000 C   0  0  0  0  0  0  0  0  0  0  0  0
    4.2510   -4.2675    0.0000 C   0  0  0  0  0  0  0  0  0  0  0  0
    4.2336   -2.7676    0.0000 C   0  0  0  0  0  0  0  0  0  0  0  0
    2.9259   -2.0327    0.0000 C   0  0  0  0  0  0  0  0  0  0  0  0
    1.6357   -2.7978    0.0000 C   0  0  0  0  0  0  0  0  0  0  0  0
    0.3280   -2.0629    0.0000 O   0  0  0  0  0  0  0  0  0  0  0  0
    0.3105   -0.5630    0.0000 C   0  0  0  0  0  0  0  0  0  0  0  0
    5.6546   -2.2875    0.0000 N   0  0  0  0  0  0  0  0  0  0  0  0
    6.1015   -0.8556    0.0000 C   0  0  0  0  0  0  0  0  0  0  0  0
    7.5650   -0.5267    0.0000 O   0  0  0  0  0  0  0  0  0  0  0  0
    6.5504   -3.4906    0.0000 C   0  0  0  0  0  0  0  0  0  0  0  0
    8.0439   -3.6301    0.0000 C   0  0  0  0  0  0  0  0  0  0  0  0
    7.9219   -2.1350    0.0000 O   0  0  0  0  0  0  0  0  0  0  0  0
    9.4950   -3.2503    0.0000 C   0  0  0  0  0  0  0  0  0  0  0  0
   10.7763   -4.0302    0.0000 O   0  0  0  0  0  0  0  0  0  0  0  0
    9.8917   -1.8037    0.0000 O   0  0  0  0  0  0  0  0  0  0  0  0
   11.3428   -1.4239    0.0000 C   0  0  0  0  0  0  0  0  0  0  0  0
    8.6699   -4.9932    0.0000 C   0  0  0  0  0  0  0  0  0  0  0  0
   10.1634   -5.1326    0.0000 O   0  0  0  0  0  0  0  0  0  0  0  0
   10.7894   -6.4957    0.0000 C   0  0  0  0  0  0  0  0  0  0  0  0
   12.2829   -6.6352    0.0000 C   0  0  0  0  0  0  0  0  0  0  0  0
   10.0775   -7.8161    0.0000 O   0  0  0  0  0  0  0  0  0  0  0  0
    7.8024   -6.2169    0.0000 C   0  0  0  0  0  0  0  0  0  0  0  0
    9.2959   -6.3563    0.0000 C   0  0  0  0  0  0  0  0  0  0  0  0
    9.7511   -7.7856    0.0000 C   0  0  0  0  0  0  0  0  0  0  0  0
    8.4284   -7.5800    0.0000 C   0  0  0  0  0  0  0  0  0  0  0  0
    7.5609   -8.8037    0.0000 C   0  0  0  0  0  0  0  0  0  0  0  0
    6.0674   -8.6643    0.0000 C   0  0  0  0  0  0  0  0  0  0  0  0
    5.4414   -7.3012    0.0000 N   0  0  0  0  0  0  0  0  0  0  0  0
    4.0641   -6.7071    0.0000 C   0  0  0  0  0  0  0  0  0  0  0  0
    4.2035   -5.2135    0.0000 C   0  0  0  0  0  0  0  0  0  0  0  0
    5.6829   -4.7143    0.0000 C   0  0  0  0  0  0  0  0  0  0  0  0
    6.3089   -6.0775    0.0000 C   0  0  0  0  0  0  0  0  0  0  0  0
   -0.2947   -6.4109    0.0000 C   0  0  0  0  0  0  0  0  0  0  0  0
   -4.8274   -6.5776    0.0000 C   0  0  0  0  0  0  0  0  0  0  0  0
  1  2  1  0
  2  3  1  0
  3  4  1  6
  3  5  1  0
  6  5  1  1
  6  7  1  0
  7  8  1  0
  8  9  1  0
  9 10  1  0
 10 11  1  0
 11 12  2  0
 12 13  1  0
 13 14  1  0
 14 15  2  0
 15 16  1  0
 16 17  2  0
 17 18  1  0
 18 19  2  0
 12 20  1  0
 20 21  1  6
 21 22  2  0
 21 23  1  0
 23 24  1  0
 20 25  1  0
 25 26  2  0
 26 27  1  0
 27 28  2  0
 28 29  1  0
 29 30  2  0
 30 31  1  0
 31 32  1  0
 28 33  1  0
 33 34  1  0
 34 35  2  0
 36 33  1  1
 36 37  1  0
 37 38  1  6
 37 39  1  0
 39 40  2  0
 39 41  1  0
 41 42  1  0
 37 43  1  0
 43 44  1  6
 44 45  1  0
 45 46  1  0
 45 47  2  0
 43 48  1  0
 48 49  1  1
 49 50  1  0
 48 51  1  0
 51 52  2  0
 52 53  1  0
 53 54  1  0
 54 55  1  0
 55 56  1  0
 57 56  1  6
 57 58  1  0
 20 59  1  0
  8 60  1  0
 60  3  1  0
 59  6  1  0
 19 11  1  0
 30 25  1  0
 57 36  1  0
 19 14  1  0
 57 27  1  0
 58 48  1  0
 58 54  1  6
M  END
>  <assay_description>  (1) 
Inhibition of human liver OATP1B1 expressed in HEK293 Flp-In cells assessed as reduction in E17-betaG uptake by scintillation counting

>  <molecule_pref_name>  (1) 
VINCRISTINE

>  <canonical_smiles>  (1) 
CC[C@]1(O)C[C@H]2CN(CCc3c([nH]c4ccccc34)[C@@](C(=O)OC)(c3cc4c(cc3OC)N(C=O)[C@H]3[C@@](O)(C(=O)OC)[C@H](OC(C)=O)[C@]5(CC)C=CCN6CC[C@]43[C@@H]65)C2)C1

>  <pchembl_value>  (1) 
4.38

>  <standard_type>  (1) 
Ki

>  <standard_relation>  (1) 
=

>  <standard_value>  (1) 
42000.0

>  <standard_units>  (1) 
nM

>  <target_pref_name>  (1) 
Solute carrier organic anion transporter family member 1B1

>  <target_organism>  (1) 
Homo sapiens

$$$$
CHEMBL90555
     RDKit          2D

 60 68  0  0  0  0  0  0  0  0999 V2000
   -6.0861   -9.7526    0.0000 C   0  0  0  0  0  0  0  0  0  0  0  0
   -5.6727   -8.3108    0.0000 C   0  0  0  0  0  0  0  0  0  0  0  0
   -4.2172   -7.9479    0.0000 C   0  0  0  0  0  0  0  0  0  0  0  0
   -4.1126   -9.4442    0.0000 O   0  0  0  0  0  0  0  0  0  0  0  0
   -2.7255   -8.1047    0.0000 C   0  0  0  0  0  0  0  0  0  0  0  0
   -1.6650   -7.0210    0.0000 C   0  0  0  0  0  0  0  0  0  0  0  0
   -3.1069   -6.6076    0.0000 C   0  0  0  0  0  0  0  0  0  0  0  0
   -3.9457   -5.3640    0.0000 N   0  0  0  0  0  0  0  0  0  0  0  0
   -3.7889   -3.8722    0.0000 C   0  0  0  0  0  0  0  0  0  0  0  0
   -2.7099   -2.8303    0.0000 C   0  0  0  0  0  0  0  0  0  0  0  0
   -1.2135   -2.7256    0.0000 C   0  0  0  0  0  0  0  0  0  0  0  0
   -0.0000   -3.6073    0.0000 C   0  0  0  0  0  0  0  0  0  0  0  0
    1.2135   -2.7256    0.0000 N   0  0  0  0  0  0  0  0  0  0  0  0
    0.7500   -1.2990    0.0000 C   0  0  0  0  0  0  0  0  0  0  0  0
    1.5000    0.0000    0.0000 C   0  0  0  0  0  0  0  0  0  0  0  0
    0.7500    1.2990    0.0000 C   0  0  0  0  0  0  0  0  0  0  0  0
   -0.7500    1.2990    0.0000 C   0  0  0  0  0  0  0  0  0  0  0  0
   -1.5000   -0.0000    0.0000 C   0  0  0  0  0  0  0  0  0  0  0  0
   -0.7500   -1.2990    0.0000 C   0  0  0  0  0  0  0  0  0  0  0  0
    0.3629   -5.0627    0.0000 C   0  0  0  0  0  0  0  0  0  0  0  0
    1.4658   -6.0793    0.0000 C   0  0  0  0  0  0  0  0  0  0  0  0
    2.9633   -5.9922    0.0000 O   0  0  0  0  0  0  0  0  0  0  0  0
    1.1369   -7.5428    0.0000 O   0  0  0  0  0  0  0  0  0  0  0  0
    2.2399   -8.5594    0.0000 C   0  0  0  0  0  0  0  0  0  0  0  0
    1.6531   -4.2977    0.0000 C   0  0  0  0  0  0  0  0  0  0  0  0
    2.9608   -5.0325    0.0000 C   0  0  0  0  0  0  0  0  0  0  0  0
    4.2510   -4.2675    0.0000 C   0  0  0  0  0  0  0  0  0  0  0  0
    4.2336   -2.7676    0.0000 C   0  0  0  0  0  0  0  0  0  0  0  0
    2.9259   -2.0327    0.0000 C   0  0  0  0  0  0  0  0  0  0  0  0
    1.6357   -2.7978    0.0000 C   0  0  0  0  0  0  0  0  0  0  0  0
    0.3280   -2.0629    0.0000 O   0  0  0  0  0  0  0  0  0  0  0  0
    0.3105   -0.5630    0.0000 C   0  0  0  0  0  0  0  0  0  0  0  0
    5.6546   -2.2875    0.0000 N   0  0  0  0  0  0  0  0  0  0  0  0
    6.1015   -0.8556    0.0000 C   0  0  0  0  0  0  0  0  0  0  0  0
    7.5650   -0.5267    0.0000 O   0  0  0  0  0  0  0  0  0  0  0  0
    6.5504   -3.4906    0.0000 C   0  0  0  0  0  0  0  0  0  0  0  0
    8.0439   -3.6301    0.0000 C   0  0  0  0  0  0  0  0  0  0  0  0
    7.9219   -2.1350    0.0000 O   0  0  0  0  0  0  0  0  0  0  0  0
    9.4950   -3.2503    0.0000 C   0  0  0  0  0  0  0  0  0  0  0  0
   10.7763   -4.0302    0.0000 O   0  0  0  0  0  0  0  0  0  0  0  0
    9.8917   -1.8037    0.0000 O   0  0  0  0  0  0  0  0  0  0  0  0
   11.3428   -1.4239    0.0000 C   0  0  0  0  0  0  0  0  0  0  0  0
    8.6699   -4.9932    0.0000 C   0  0  0  0  0  0  0  0  0  0  0  0
   10.1634   -5.1326    0.0000 O   0  0  0  0  0  0  0  0  0  0  0  0
   10.7894   -6.4957    0.0000 C   0  0  0  0  0  0  0  0  0  0  0  0
   12.2829   -6.6352    0.0000 C   0  0  0  0  0  0  0  0  0  0  0  0
   10.0775   -7.8161    0.0000 O   0  0  0  0  0  0  0  0  0  0  0  0
    7.8024   -6.2169    0.0000 C   0  0  0  0  0  0  0  0  0  0  0  0
    9.2959   -6.3563    0.0000 C   0  0  0  0  0  0  0  0  0  0  0  0
    9.7511   -7.7856    0.0000 C   0  0  0  0  0  0  0  0  0  0  0  0
    8.4284   -7.5800    0.0000 C   0  0  0  0  0  0  0  0  0  0  0  0
    7.5609   -8.8037    0.0000 C   0  0  0  0  0  0  0  0  0  0  0  0
    6.0674   -8.6643    0.0000 C   0  0  0  0  0  0  0  0  0  0  0  0
    5.4414   -7.3012    0.0000 N   0  0  0  0  0  0  0  0  0  0  0  0
    4.0641   -6.7071    0.0000 C   0  0  0  0  0  0  0  0  0  0  0  0
    4.2035   -5.2135    0.0000 C   0  0  0  0  0  0  0  0  0  0  0  0
    5.6829   -4.7143    0.0000 C   0  0  0  0  0  0  0  0  0  0  0  0
    6.3089   -6.0775    0.0000 C   0  0  0  0  0  0  0  0  0  0  0  0
   -0.2947   -6.4109    0.0000 C   0  0  0  0  0  0  0  0  0  0  0  0
   -4.8274   -6.5776    0.0000 C   0  0  0  0  0  0  0  0  0  0  0  0
  1  2  1  0
  2  3  1  0
  3  4  1  6
  3  5  1  0
  6  5  1  1
  6  7  1  0
  7  8  1  0
  8  9  1  0
  9 10  1  0
 10 11  1  0
 11 12  2  0
 12 13  1  0
 13 14  1  0
 14 15  2  0
 15 16  1  0
 16 17  2  0
 17 18  1  0
 18 19  2  0
 12 20  1  0
 20 21  1  6
 21 22  2  0
 21 23  1  0
 23 24  1  0
 20 25  1  0
 25 26  2  0
 26 27  1  0
 27 28  2  0
 28 29  1  0
 29 30  2  0
 30 31  1  0
 31 32  1  0
 28 33  1  0
 33 34  1  0
 34 35  2  0
 36 33  1  1
 36 37  1  0
 37 38  1  6
 37 39  1  0
 39 40  2  0
 39 41  1  0
 41 42  1  0
 37 43  1  0
 43 44  1  6
 44 45  1  0
 45 46  1  0
 45 47  2  0
 43 48  1  0
 48 49  1  1
 49 50  1  0
 48 51  1  0
 51 52  2  0
 52 53  1  0
 53 54  1  0
 54 55  1  0
 55 56  1  0
 57 56  1  6
 57 58  1  0
 20 59  1  0
  8 60  1  0
 60  3  1  0
 59  6  1  0
 19 11  1  0
 30 25  1  0
 57 36  1  0
 19 14  1  0
 57 27  1  0
 58 48  1  0
 58 54  1  6
M  END
>  <assay_description>  (2) 
Inhibition of human liver OATP1B1 expressed in HEK293 Flp-In cells assessed as reduction in E17-betaG uptake by scintillation counting

>  <molecule_pref_name>  (2) 
VINCRISTINE

>  <canonical_smiles>  (2) 
CC[C@]1(O)C[C@H]2CN(CCc3c([nH]c4ccccc34)[C@@](C(=O)OC)(c3cc4c(cc3OC)N(C=O)[C@H]3[C@@](O)(C(=O)OC)[C@H](OC(C)=O)[C@]5(CC)C=CCN6CC[C@]43[C@@H]65)C2)C1

>  <pchembl_value>  (2) 
4.36

>  <standard_type>  (2) 
IC50

>  <standard_relation>  (2) 
=

>  <standard_value>  (2) 
44000.0

>  <standard_units>  (2) 
nM

>  <target_pref_name>  (2) 
Solute carrier organic anion transporter family member 1B1

>  <target_organism>  (2) 
Homo sapiens

$$$$
CHEMBL421
     RDKit          2D

 28 30  0  0  0  0  0  0  0  0999 V2000
    3.7500    1.2990    0.0000 O   0  0  0  0  0  0  0  0  0  0  0  0
    3.0000    0.0000    0.0000 C   0  0  0  0  0  0  0  0  0  0  0  0
    3.7500   -1.2990    0.0000 O   0  0  0  0  0  0  0  0  0  0  0  0
    1.5000    0.0000    0.0000 C   0  0  0  0  0  0  0  0  0  0  0  0
    0.7500   -1.2990    0.0000 C   0  0  0  0  0  0  0  0  0  0  0  0
   -0.7500   -1.2990    0.0000 C   0  0  0  0  0  0  0  0  0  0  0  0
   -1.5000   -2.5981    0.0000 N   0  0  0  0  0  0  0  0  0  0  0  0
   -3.0000   -2.5981    0.0000 N   0  0  0  0  0  0  0  0  0  0  0  0
   -3.7500   -3.8971    0.0000 C   0  0  0  0  0  0  0  0  0  0  0  0
   -5.2500   -3.8971    0.0000 C   0  0  0  0  0  0  0  0  0  0  0  0
   -6.0000   -5.1962    0.0000 C   0  0  0  0  0  0  0  0  0  0  0  0
   -5.2500   -6.4952    0.0000 C   0  0  0  0  0  0  0  0  0  0  0  0
   -6.0000   -7.7942    0.0000 S   0  0  0  0  0  0  0  0  0  0  0  0
   -7.2990   -7.0442    0.0000 O   0  0  0  0  0  0  0  0  0  0  0  0
   -4.7010   -8.5442    0.0000 O   0  0  0  0  0  0  0  0  0  0  0  0
   -6.7500   -9.0933    0.0000 N   0  0  0  0  0  0  0  0  0  0  0  0
   -6.0000  -10.3923    0.0000 C   0  0  0  0  0  0  0  0  0  0  0  0
   -6.7500  -11.6913    0.0000 C   0  0  0  0  0  0  0  0  0  0  0  0
   -6.0000  -12.9904    0.0000 C   0  0  0  0  0  0  0  0  0  0  0  0
   -4.5000  -12.9904    0.0000 C   0  0  0  0  0  0  0  0  0  0  0  0
   -3.7500  -11.6913    0.0000 C   0  0  0  0  0  0  0  0  0  0  0  0
   -4.5000  -10.3923    0.0000 N   0  0  0  0  0  0  0  0  0  0  0  0
   -3.7500   -6.4952    0.0000 C   0  0  0  0  0  0  0  0  0  0  0  0
   -3.0000   -5.1962    0.0000 C   0  0  0  0  0  0  0  0  0  0  0  0
   -1.5000    0.0000    0.0000 C   0  0  0  0  0  0  0  0  0  0  0  0
   -0.7500    1.2990    0.0000 C   0  0  0  0  0  0  0  0  0  0  0  0
    0.7500    1.2990    0.0000 C   0  0  0  0  0  0  0  0  0  0  0  0
    1.5000    2.5981    0.0000 O   0  0  0  0  0  0  0  0  0  0  0  0
  1  2  2  0
  2  3  1  0
  2  4  1  0
  4  5  2  0
  5  6  1  0
  6  7  1  0
  7  8  2  0
  8  9  1  0
  9 10  2  0
 10 11  1  0
 11 12  2  0
 12 13  1  0
 13 14  2  0
 13 15  2  0
 13 16  1  0
 16 17  1  0
 17 18  2  0
 18 19  1  0
 19 20  2  0
 20 21  1  0
 21 22  2  0
 12 23  1  0
 23 24  2  0
  6 25  2  0
 25 26  1  0
 26 27  2  0
 27 28  1  0
 27  4  1  0
 24  9  1  0
 22 17  1  0
M  END
>  <assay_description>  (3) 
Inhibition of human liver OATP1B1 expressed in HEK293 Flp-In cells assessed as reduction in E17-betaG uptake by scintillation counting

>  <molecule_pref_name>  (3) 
SULFASALAZINE

>  <canonical_smiles>  (3) 
O=C(O)c1cc(/N=N/c2ccc(S(=O)(=O)Nc3ccccn3)cc2)ccc1O

>  <pchembl_value>  (3) 
6.28

>  <standard_type>  (3) 
Ki

>  <standard_relation>  (3) 
=

>  <standard_value>  (3) 
530.0

>  <standard_units>  (3) 
nM

>  <target_pref_name>  (3) 
Solute carrier organic anion transporter family member 1B1

>  <target_organism>  (3) 
Homo sapiens

$$$$
CHEMBL421
     RDKit          2D

 28 30  0  0  0  0  0  0  0  0999 V2000
    3.7500    1.2990    0.0000 O   0  0  0  0  0  0  0  0  0  0  0  0
    3.0000    0.0000    0.0000 C   0  0  0  0  0  0  0  0  0  0  0  0
    3.7500   -1.2990    0.0000 O   0  0  0  0  0  0  0  0  0  0  0  0
    1.5000    0.0000    0.0000 C   0  0  0  0  0  0  0  0  0  0  0  0
    0.7500   -1.2990    0.0000 C   0  0  0  0  0  0  0  0  0  0  0  0
   -0.7500   -1.2990    0.0000 C   0  0  0  0  0  0  0  0  0  0  0  0
   -1.5000   -2.5981    0.0000 N   0  0  0  0  0  0  0  0  0  0  0  0
   -3.0000   -2.5981    0.0000 N   0  0  0  0  0  0  0  0  0  0  0  0
   -3.7500   -3.8971    0.0000 C   0  0  0  0  0  0  0  0  0  0  0  0
   -5.2500   -3.8971    0.0000 C   0  0  0  0  0  0  0  0  0  0  0  0
   -6.0000   -5.1962    0.0000 C   0  0  0  0  0  0  0  0  0  0  0  0
   -5.2500   -6.4952    0.0000 C   0  0  0  0  0  0  0  0  0  0  0  0
   -6.0000   -7.7942    0.0000 S   0  0  0  0  0  0  0  0  0  0  0  0
   -7.2990   -7.0442    0.0000 O   0  0  0  0  0  0  0  0  0  0  0  0
   -4.7010   -8.5442    0.0000 O   0  0  0  0  0  0  0  0  0  0  0  0
   -6.7500   -9.0933    0.0000 N   0  0  0  0  0  0  0  0  0  0  0  0
   -6.0000  -10.3923    0.0000 C   0  0  0  0  0  0  0  0  0  0  0  0
   -6.7500  -11.6913    0.0000 C   0  0  0  0  0  0  0  0  0  0  0  0
   -6.0000  -12.9904    0.0000 C   0  0  0  0  0  0  0  0  0  0  0  0
   -4.5000  -12.9904    0.0000 C   0  0  0  0  0  0  0  0  0  0  0  0
   -3.7500  -11.6913    0.0000 C   0  0  0  0  0  0  0  0  0  0  0  0
   -4.5000  -10.3923    0.0000 N   0  0  0  0  0  0  0  0  0  0  0  0
   -3.7500   -6.4952    0.0000 C   0  0  0  0  0  0  0  0  0  0  0  0
   -3.0000   -5.1962    0.0000 C   0  0  0  0  0  0  0  0  0  0  0  0
   -1.5000    0.0000    0.0000 C   0  0  0  0  0  0  0  0  0  0  0  0
   -0.7500    1.2990    0.0000 C   0  0  0  0  0  0  0  0  0  0  0  0
    0.7500    1.2990    0.0000 C   0  0  0  0  0  0  0  0  0  0  0  0
    1.5000    2.5981    0.0000 O   0  0  0  0  0  0  0  0  0  0  0  0
  1  2  2  0
  2  3  1  0
  2  4  1  0
  4  5  2  0
  5  6  1  0
  6  7  1  0
  7  8  2  0
  8  9  1  0
  9 10  2  0
 10 11  1  0
 11 12  2  0
 12 13  1  0
 13 14  2  0
 13 15  2  0
 13 16  1  0
 16 17  1  0
 17 18  2  0
 18 19  1  0
 19 20  2  0
 20 21  1  0
 21 22  2  0
 12 23  1  0
 23 24  2  0
  6 25  2  0
 25 26  1  0
 26 27  2  0
 27 28  1  0
 27  4  1  0
 24  9  1  0
 22 17  1  0
M  END
>  <assay_description>  (4) 
Inhibition of human liver OATP1B1 expressed in HEK293 Flp-In cells assessed as reduction in E17-betaG uptake by scintillation counting

>  <molecule_pref_name>  (4) 
SULFASALAZINE

>  <canonical_smiles>  (4) 
O=C(O)c1cc(/N=N/c2ccc(S(=O)(=O)Nc3ccccn3)cc2)ccc1O

>  <pchembl_value>  (4) 
6.25

>  <standard_type>  (4) 
IC50

>  <standard_relation>  (4) 
=

>  <standard_value>  (4) 
560.0

>  <standard_units>  (4) 
nM

>  <target_pref_name>  (4) 
Solute carrier organic anion transporter family member 1B1

>  <target_organism>  (4) 
Homo sapiens

$$$$
CHEMBL163
     RDKit          2D

 50 53  0  0  0  0  0  0  0  0999 V2000
   -9.3308    3.7259    0.0000 C   0  0  0  0  0  0  0  0  0  0  0  0
   -9.1740    2.2341    0.0000 C   0  0  0  0  0  0  0  0  0  0  0  0
  -10.3875    1.3524    0.0000 C   0  0  0  0  0  0  0  0  0  0  0  0
   -7.8037    1.6240    0.0000 C   0  0  0  0  0  0  0  0  0  0  0  0
   -7.4918    0.1568    0.0000 N   0  0  0  0  0  0  0  0  0  0  0  0
   -6.0000    0.0000    0.0000 C   0  0  0  0  0  0  0  0  0  0  0  0
   -5.2500   -1.2990    0.0000 C   0  0  0  0  0  0  0  0  0  0  0  0
   -6.0000   -2.5981    0.0000 N   0  0  0  0  0  0  0  0  0  0  0  0
   -7.5000   -2.5981    0.0000 C   0  0  0  0  0  0  0  0  0  0  0  0
   -5.2500   -3.8971    0.0000 C   0  0  0  0  0  0  0  0  0  0  0  0
   -6.0000   -5.1962    0.0000 O   0  0  0  0  0  0  0  0  0  0  0  0
   -3.7500   -3.8971    0.0000 N   0  0  0  0  0  0  0  0  0  0  0  0
   -3.0000   -5.1962    0.0000 C   0  0  0  0  0  0  0  0  0  0  0  0
   -1.5000   -5.1962    0.0000 C   0  0  0  0  0  0  0  0  0  0  0  0
   -0.7500   -6.4952    0.0000 O   0  0  0  0  0  0  0  0  0  0  0  0
   -0.7500   -3.8971    0.0000 N   0  0  0  0  0  0  0  0  0  0  0  0
    0.7500   -3.8971    0.0000 C   0  0  0  0  0  0  0  0  0  0  0  0
    1.5000   -2.5981    0.0000 C   0  0  0  0  0  0  0  0  0  0  0  0
    0.7500   -1.2990    0.0000 C   0  0  0  0  0  0  0  0  0  0  0  0
    1.5000    0.0000    0.0000 C   0  0  0  0  0  0  0  0  0  0  0  0
    0.7500    1.2990    0.0000 C   0  0  0  0  0  0  0  0  0  0  0  0
   -0.7500    1.2990    0.0000 C   0  0  0  0  0  0  0  0  0  0  0  0
   -1.5000    0.0000    0.0000 C   0  0  0  0  0  0  0  0  0  0  0  0
   -0.7500   -1.2990    0.0000 C   0  0  0  0  0  0  0  0  0  0  0  0
    1.5000   -5.1962    0.0000 C   0  0  0  0  0  0  0  0  0  0  0  0
    3.0000   -5.1962    0.0000 C   0  0  0  0  0  0  0  0  0  0  0  0
    3.7500   -3.8971    0.0000 O   0  0  0  0  0  0  0  0  0  0  0  0
    3.7500   -6.4952    0.0000 C   0  0  0  0  0  0  0  0  0  0  0  0
    5.2500   -6.4952    0.0000 C   0  0  0  0  0  0  0  0  0  0  0  0
    6.0000   -7.7942    0.0000 C   0  0  0  0  0  0  0  0  0  0  0  0
    7.5000   -7.7942    0.0000 C   0  0  0  0  0  0  0  0  0  0  0  0
    8.2500   -9.0933    0.0000 C   0  0  0  0  0  0  0  0  0  0  0  0
    7.5000  -10.3923    0.0000 C   0  0  0  0  0  0  0  0  0  0  0  0
    6.0000  -10.3923    0.0000 C   0  0  0  0  0  0  0  0  0  0  0  0
    5.2500   -9.0933    0.0000 C   0  0  0  0  0  0  0  0  0  0  0  0
    3.0000   -7.7942    0.0000 N   0  0  0  0  0  0  0  0  0  0  0  0
    1.5000   -7.7942    0.0000 C   0  0  0  0  0  0  0  0  0  0  0  0
    0.7500   -6.4952    0.0000 O   0  0  0  0  0  0  0  0  0  0  0  0
    0.7500   -9.0933    0.0000 O   0  0  0  0  0  0  0  0  0  0  0  0
   -0.7500   -9.0933    0.0000 C   0  0  0  0  0  0  0  0  0  0  0  0
   -1.5000  -10.3923    0.0000 C   0  0  0  0  0  0  0  0  0  0  0  0
   -0.8899  -11.7626    0.0000 C   0  0  0  0  0  0  0  0  0  0  0  0
   -2.0046  -12.7663    0.0000 N   0  0  0  0  0  0  0  0  0  0  0  0
   -3.3037  -12.0163    0.0000 C   0  0  0  0  0  0  0  0  0  0  0  0
   -2.9918  -10.5491    0.0000 S   0  0  0  0  0  0  0  0  0  0  0  0
   -3.7500   -6.4952    0.0000 C   0  0  0  0  0  0  0  0  0  0  0  0
   -5.2500   -6.4952    0.0000 C   0  0  0  0  0  0  0  0  0  0  0  0
   -3.0000   -7.7942    0.0000 C   0  0  0  0  0  0  0  0  0  0  0  0
   -5.3899    1.3703    0.0000 C   0  0  0  0  0  0  0  0  0  0  0  0
   -6.5046    2.3740    0.0000 S   0  0  0  0  0  0  0  0  0  0  0  0
  1  2  1  0
  2  3  1  0
  2  4  1  0
  4  5  2  0
  5  6  1  0
  6  7  1  0
  7  8  1  0
  8  9  1  0
  8 10  1  0
 10 11  2  0
 10 12  1  0
 13 12  1  6
 13 14  1  0
 14 15  2  0
 14 16  1  0
 16 17  1  0
 17 18  1  1
 18 19  1  0
 19 20  2  0
 20 21  1  0
 21 22  2  0
 22 23  1  0
 23 24  2  0
 17 25  1  0
 25 26  1  0
 26 27  1  6
 26 28  1  0
 28 29  1  6
 29 30  1  0
 30 31  2  0
 31 32  1  0
 32 33  2  0
 33 34  1  0
 34 35  2  0
 28 36  1  0
 36 37  1  0
 37 38  2  0
 37 39  1  0
 39 40  1  0
 40 41  1  0
 41 42  2  0
 42 43  1  0
 43 44  2  0
 44 45  1  0
 13 46  1  0
 46 47  1  0
 46 48  1  0
  6 49  2  0
 49 50  1  0
 50  4  1  0
 24 19  1  0
 35 30  1  0
 45 41  1  0
M  END
>  <assay_description>  (5) 
Inhibition of human liver OATP1B1 expressed in HEK293 Flp-In cells assessed as reduction in E17-betaG uptake by scintillation counting

>  <molecule_pref_name>  (5) 
RITONAVIR

>  <canonical_smiles>  (5) 
CC(C)c1nc(CN(C)C(=O)N[C@H](C(=O)N[C@@H](Cc2ccccc2)C[C@H](O)[C@H](Cc2ccccc2)NC(=O)OCc2cncs2)C(C)C)cs1

>  <pchembl_value>  (5) 
5.89

>  <standard_type>  (5) 
Ki

>  <standard_relation>  (5) 
=

>  <standard_value>  (5) 
1300.0

>  <standard_units>  (5) 
nM

>  <target_pref_name>  (5) 
Solute carrier organic anion transporter family member 1B1

>  <target_organism>  (5) 
Homo sapiens

$$$$
CHEMBL163
     RDKit          2D

 50 53  0  0  0  0  0  0  0  0999 V2000
   -9.3308    3.7259    0.0000 C   0  0  0  0  0  0  0  0  0  0  0  0
   -9.1740    2.2341    0.0000 C   0  0  0  0  0  0  0  0  0  0  0  0
  -10.3875    1.3524    0.0000 C   0  0  0  0  0  0  0  0  0  0  0  0
   -7.8037    1.6240    0.0000 C   0  0  0  0  0  0  0  0  0  0  0  0
   -7.4918    0.1568    0.0000 N   0  0  0  0  0  0  0  0  0  0  0  0
   -6.0000    0.0000    0.0000 C   0  0  0  0  0  0  0  0  0  0  0  0
   -5.2500   -1.2990    0.0000 C   0  0  0  0  0  0  0  0  0  0  0  0
   -6.0000   -2.5981    0.0000 N   0  0  0  0  0  0  0  0  0  0  0  0
   -7.5000   -2.5981    0.0000 C   0  0  0  0  0  0  0  0  0  0  0  0
   -5.2500   -3.8971    0.0000 C   0  0  0  0  0  0  0  0  0  0  0  0
   -6.0000   -5.1962    0.0000 O   0  0  0  0  0  0  0  0  0  0  0  0
   -3.7500   -3.8971    0.0000 N   0  0  0  0  0  0  0  0  0  0  0  0
   -3.0000   -5.1962    0.0000 C   0  0  0  0  0  0  0  0  0  0  0  0
   -1.5000   -5.1962    0.0000 C   0  0  0  0  0  0  0  0  0  0  0  0
   -0.7500   -6.4952    0.0000 O   0  0  0  0  0  0  0  0  0  0  0  0
   -0.7500   -3.8971    0.0000 N   0  0  0  0  0  0  0  0  0  0  0  0
    0.7500   -3.8971    0.0000 C   0  0  0  0  0  0  0  0  0  0  0  0
    1.5000   -2.5981    0.0000 C   0  0  0  0  0  0  0  0  0  0  0  0
    0.7500   -1.2990    0.0000 C   0  0  0  0  0  0  0  0  0  0  0  0
    1.5000    0.0000    0.0000 C   0  0  0  0  0  0  0  0  0  0  0  0
    0.7500    1.2990    0.0000 C   0  0  0  0  0  0  0  0  0  0  0  0
   -0.7500    1.2990    0.0000 C   0  0  0  0  0  0  0  0  0  0  0  0
   -1.5000    0.0000    0.0000 C   0  0  0  0  0  0  0  0  0  0  0  0
   -0.7500   -1.2990    0.0000 C   0  0  0  0  0  0  0  0  0  0  0  0
    1.5000   -5.1962    0.0000 C   0  0  0  0  0  0  0  0  0  0  0  0
    3.0000   -5.1962    0.0000 C   0  0  0  0  0  0  0  0  0  0  0  0
    3.7500   -3.8971    0.0000 O   0  0  0  0  0  0  0  0  0  0  0  0
    3.7500   -6.4952    0.0000 C   0  0  0  0  0  0  0  0  0  0  0  0
    5.2500   -6.4952    0.0000 C   0  0  0  0  0  0  0  0  0  0  0  0
    6.0000   -7.7942    0.0000 C   0  0  0  0  0  0  0  0  0  0  0  0
    7.5000   -7.7942    0.0000 C   0  0  0  0  0  0  0  0  0  0  0  0
    8.2500   -9.0933    0.0000 C   0  0  0  0  0  0  0  0  0  0  0  0
    7.5000  -10.3923    0.0000 C   0  0  0  0  0  0  0  0  0  0  0  0
    6.0000  -10.3923    0.0000 C   0  0  0  0  0  0  0  0  0  0  0  0
    5.2500   -9.0933    0.0000 C   0  0  0  0  0  0  0  0  0  0  0  0
    3.0000   -7.7942    0.0000 N   0  0  0  0  0  0  0  0  0  0  0  0
    1.5000   -7.7942    0.0000 C   0  0  0  0  0  0  0  0  0  0  0  0
    0.7500   -6.4952    0.0000 O   0  0  0  0  0  0  0  0  0  0  0  0
    0.7500   -9.0933    0.0000 O   0  0  0  0  0  0  0  0  0  0  0  0
   -0.7500   -9.0933    0.0000 C   0  0  0  0  0  0  0  0  0  0  0  0
   -1.5000  -10.3923    0.0000 C   0  0  0  0  0  0  0  0  0  0  0  0
   -0.8899  -11.7626    0.0000 C   0  0  0  0  0  0  0  0  0  0  0  0
   -2.0046  -12.7663    0.0000 N   0  0  0  0  0  0  0  0  0  0  0  0
   -3.3037  -12.0163    0.0000 C   0  0  0  0  0  0  0  0  0  0  0  0
   -2.9918  -10.5491    0.0000 S   0  0  0  0  0  0  0  0  0  0  0  0
   -3.7500   -6.4952    0.0000 C   0  0  0  0  0  0  0  0  0  0  0  0
   -5.2500   -6.4952    0.0000 C   0  0  0  0  0  0  0  0  0  0  0  0
   -3.0000   -7.7942    0.0000 C   0  0  0  0  0  0  0  0  0  0  0  0
   -5.3899    1.3703    0.0000 C   0  0  0  0  0  0  0  0  0  0  0  0
   -6.5046    2.3740    0.0000 S   0  0  0  0  0  0  0  0  0  0  0  0
  1  2  1  0
  2  3  1  0
  2  4  1  0
  4  5  2  0
  5  6  1  0
  6  7  1  0
  7  8  1  0
  8  9  1  0
  8 10  1  0
 10 11  2  0
 10 12  1  0
 13 12  1  6
 13 14  1  0
 14 15  2  0
 14 16  1  0
 16 17  1  0
 17 18  1  1
 18 19  1  0
 19 20  2  0
 20 21  1  0
 21 22  2  0
 22 23  1  0
 23 24  2  0
 17 25  1  0
 25 26  1  0
 26 27  1  6
 26 28  1  0
 28 29  1  6
 29 30  1  0
 30 31  2  0
 31 32  1  0
 32 33  2  0
 33 34  1  0
 34 35  2  0
 28 36  1  0
 36 37  1  0
 37 38  2  0
 37 39  1  0
 39 40  1  0
 40 41  1  0
 41 42  2  0
 42 43  1  0
 43 44  2  0
 44 45  1  0
 13 46  1  0
 46 47  1  0
 46 48  1  0
  6 49  2  0
 49 50  1  0
 50  4  1  0
 24 19  1  0
 35 30  1  0
 45 41  1  0
M  END
>  <assay_description>  (6) 
Inhibition of human liver OATP1B1 expressed in HEK293 Flp-In cells assessed as reduction in E17-betaG uptake by scintillation counting

>  <molecule_pref_name>  (6) 
RITONAVIR

>  <canonical_smiles>  (6) 
CC(C)c1nc(CN(C)C(=O)N[C@H](C(=O)N[C@@H](Cc2ccccc2)C[C@H](O)[C@H](Cc2ccccc2)NC(=O)OCc2cncs2)C(C)C)cs1

>  <pchembl_value>  (6) 
5.89

>  <standard_type>  (6) 
IC50

>  <standard_relation>  (6) 
=

>  <standard_value>  (6) 
1300.0

>  <standard_units>  (6) 
nM

>  <target_pref_name>  (6) 
Solute carrier organic anion transporter family member 1B1

>  <target_organism>  (6) 
Homo sapiens

$$$$
CHEMBL374478
     RDKit          2D

 59 63  0  0  0  0  0  0  0  0999 V2000
    0.4940    8.3646    0.0000 C   0  0  0  0  0  0  0  0  0  0  0  0
   -1.0057    8.3332    0.0000 O   0  0  0  0  0  0  0  0  0  0  0  0
   -1.7283    7.0188    0.0000 C   0  0  0  0  0  0  0  0  0  0  0  0
   -0.5195    6.1307    0.0000 C   0  0  0  0  0  0  0  0  0  0  0  0
    0.4184    4.9601    0.0000 C   0  0  0  0  0  0  0  0  0  0  0  0
    1.0212    3.5866    0.0000 O   0  0  0  0  0  0  0  0  0  0  0  0
    0.3943    1.2135    0.0000 C   0  0  0  0  0  0  0  0  0  0  0  0
    0.8578    2.6401    0.0000 C   0  0  0  0  0  0  0  0  0  0  0  0
    1.2760    0.0000    0.0000 O   0  0  0  0  0  0  0  0  0  0  0  0
    0.3943   -1.2135    0.0000 C   0  0  0  0  0  0  0  0  0  0  0  0
    0.7062   -2.6807    0.0000 C   0  0  0  0  0  0  0  0  0  0  0  0
    2.1328   -3.1443    0.0000 C   0  0  0  0  0  0  0  0  0  0  0  0
   -0.4086   -3.6844    0.0000 C   0  0  0  0  0  0  0  0  0  0  0  0
   -0.0967   -5.1517    0.0000 O   0  0  0  0  0  0  0  0  0  0  0  0
   -1.8351   -3.2209    0.0000 C   0  0  0  0  0  0  0  0  0  0  0  0
   -2.9499   -4.2246    0.0000 C   0  0  0  0  0  0  0  0  0  0  0  0
   -2.6380   -5.6918    0.0000 O   0  0  0  0  0  0  0  0  0  0  0  0
   -4.3764   -3.7611    0.0000 C   0  0  0  0  0  0  0  0  0  0  0  0
   -4.6883   -2.2939    0.0000 C   0  0  0  0  0  0  0  0  0  0  0  0
   -6.1149   -1.8303    0.0000 C   0  0  0  0  0  0  0  0  0  0  0  0
   -6.4268   -0.3631    0.0000 N   0  0  0  0  0  0  0  0  0  0  0  0
   -7.8533    0.1004    0.0000 N   0  0  0  0  0  0  0  0  0  0  0  0
   -8.1652    1.5676    0.0000 C   0  0  0  0  0  0  0  0  0  0  0  0
   -9.5918    2.0312    0.0000 C   0  0  0  0  0  0  0  0  0  0  0  0
  -10.7065    1.0275    0.0000 N   0  0  0  0  0  0  0  0  0  0  0  0
  -12.1331    1.4910    0.0000 C   0  0  0  0  0  0  0  0  0  0  0  0
  -10.3946   -0.4398    0.0000 C   0  0  0  0  0  0  0  0  0  0  0  0
   -8.9681   -0.9033    0.0000 C   0  0  0  0  0  0  0  0  0  0  0  0
   -3.5736   -1.2902    0.0000 C   0  0  0  0  0  0  0  0  0  0  0  0
   -3.8855    0.1771    0.0000 O   0  0  0  0  0  0  0  0  0  0  0  0
   -2.1470   -1.7537    0.0000 C   0  0  0  0  0  0  0  0  0  0  0  0
   -1.0323   -0.7500    0.0000 C   0  0  0  0  0  0  0  0  0  0  0  0
   -1.0323    0.7500    0.0000 C   0  0  0  0  0  0  0  0  0  0  0  0
   -2.2458    1.6317    0.0000 O   0  0  0  0  0  0  0  0  0  0  0  0
   -5.8674   -3.5964    0.0000 N   0  0  0  0  0  0  0  0  0  0  0  0
   -7.2649   -3.0515    0.0000 C   0  0  0  0  0  0  0  0  0  0  0  0
   -7.9876   -4.3660    0.0000 O   0  0  0  0  0  0  0  0  0  0  0  0
   -8.4738   -2.1635    0.0000 C   0  0  0  0  0  0  0  0  0  0  0  0
   -9.5120   -3.2461    0.0000 C   0  0  0  0  0  0  0  0  0  0  0  0
   -9.4116   -0.9928    0.0000 C   0  0  0  0  0  0  0  0  0  0  0  0
  -10.0145    0.3807    0.0000 C   0  0  0  0  0  0  0  0  0  0  0  0
  -10.2413    1.8634    0.0000 C   0  0  0  0  0  0  0  0  0  0  0  0
  -10.0767    3.3544    0.0000 C   0  0  0  0  0  0  0  0  0  0  0  0
  -11.5334    3.7122    0.0000 C   0  0  0  0  0  0  0  0  0  0  0  0
   -9.5318    4.7519    0.0000 C   0  0  0  0  0  0  0  0  0  0  0  0
  -10.8462    5.4746    0.0000 O   0  0  0  0  0  0  0  0  0  0  0  0
   -8.6437    5.9608    0.0000 C   0  0  0  0  0  0  0  0  0  0  0  0
   -9.7263    6.9990    0.0000 C   0  0  0  0  0  0  0  0  0  0  0  0
   -7.4731    6.8986    0.0000 C   0  0  0  0  0  0  0  0  0  0  0  0
   -8.2501    8.1817    0.0000 O   0  0  0  0  0  0  0  0  0  0  0  0
   -6.0995    7.5015    0.0000 C   0  0  0  0  0  0  0  0  0  0  0  0
   -6.5180    8.9419    0.0000 C   0  0  0  0  0  0  0  0  0  0  0  0
   -4.6168    7.7283    0.0000 C   0  0  0  0  0  0  0  0  0  0  0  0
   -4.6482    9.2280    0.0000 O   0  0  0  0  0  0  0  0  0  0  0  0
   -3.3651   10.0050    0.0000 C   0  0  0  0  0  0  0  0  0  0  0  0
   -3.3965   11.5047    0.0000 C   0  0  0  0  0  0  0  0  0  0  0  0
   -1.9724    9.4480    0.0000 O   0  0  0  0  0  0  0  0  0  0  0  0
   -3.1259    7.5637    0.0000 C   0  0  0  0  0  0  0  0  0  0  0  0
   -2.5931    8.9659    0.0000 C   0  0  0  0  0  0  0  0  0  0  0  0
  1  2  1  0
  3  2  1  1
  3  4  1  0
  4  5  2  0
  5  6  1  0
  6  7  1  0
  7  8  1  6
  7  9  1  0
  9 10  1  0
 10 11  2  0
 11 12  1  0
 11 13  1  0
 13 14  1  0
 13 15  2  0
 15 16  1  0
 16 17  1  0
 16 18  2  0
 18 19  1  0
 19 20  1  0
 20 21  2  0
 21 22  1  0
 22 23  1  0
 23 24  1  0
 24 25  1  0
 25 26  1  0
 25 27  1  0
 27 28  1  0
 19 29  2  0
 29 30  1  0
 29 31  1  0
 31 32  2  0
 32 33  1  0
 33 34  2  0
 18 35  1  0
 35 36  1  0
 36 37  2  0
 36 38  1  0
 38 39  1  0
 38 40  2  0
 40 41  1  0
 41 42  2  0
 42 43  1  0
 43 44  1  6
 43 45  1  0
 45 46  1  6
 45 47  1  0
 47 48  1  1
 47 49  1  0
 49 50  1  1
 49 51  1  0
 51 52  1  1
 51 53  1  0
 53 54  1  6
 54 55  1  0
 55 56  1  0
 55 57  2  0
 53 58  1  0
 58 59  1  6
 58  3  1  0
 33  7  1  0
 32 10  1  0
 31 15  1  0
 28 22  1  0
M  END
>  <assay_description>  (7) 
Inhibition of human liver OATP1B1 expressed in HEK293 Flp-In cells assessed as reduction in E17-betaG uptake by scintillation counting

>  <molecule_pref_name>  (7) 
RIFAMPIN

>  <canonical_smiles>  (7) 
CO[C@H]1/C=C/O[C@@]2(C)Oc3c(C)c(O)c4c(O)c(c(/C=N/N5CCN(C)CC5)c(O)c4c3C2=O)NC(=O)/C(C)=C\C=C\[C@H](C)[C@H](O)[C@@H](C)[C@@H](O)[C@@H](C)[C@H](OC(C)=O)[C@@H]1C

>  <pchembl_value>  (7) 
5.96

>  <standard_type>  (7) 
Ki

>  <standard_relation>  (7) 
=

>  <standard_value>  (7) 
1100.0

>  <standard_units>  (7) 
nM

>  <target_pref_name>  (7) 
Solute carrier organic anion transporter family member 1B1

>  <target_organism>  (7) 
Homo sapiens

$$$$
CHEMBL374478
     RDKit          2D

 59 63  0  0  0  0  0  0  0  0999 V2000
    0.4940    8.3646    0.0000 C   0  0  0  0  0  0  0  0  0  0  0  0
   -1.0057    8.3332    0.0000 O   0  0  0  0  0  0  0  0  0  0  0  0
   -1.7283    7.0188    0.0000 C   0  0  0  0  0  0  0  0  0  0  0  0
   -0.5195    6.1307    0.0000 C   0  0  0  0  0  0  0  0  0  0  0  0
    0.4184    4.9601    0.0000 C   0  0  0  0  0  0  0  0  0  0  0  0
    1.0212    3.5866    0.0000 O   0  0  0  0  0  0  0  0  0  0  0  0
    0.3943    1.2135    0.0000 C   0  0  0  0  0  0  0  0  0  0  0  0
    0.8578    2.6401    0.0000 C   0  0  0  0  0  0  0  0  0  0  0  0
    1.2760    0.0000    0.0000 O   0  0  0  0  0  0  0  0  0  0  0  0
    0.3943   -1.2135    0.0000 C   0  0  0  0  0  0  0  0  0  0  0  0
    0.7062   -2.6807    0.0000 C   0  0  0  0  0  0  0  0  0  0  0  0
    2.1328   -3.1443    0.0000 C   0  0  0  0  0  0  0  0  0  0  0  0
   -0.4086   -3.6844    0.0000 C   0  0  0  0  0  0  0  0  0  0  0  0
   -0.0967   -5.1517    0.0000 O   0  0  0  0  0  0  0  0  0  0  0  0
   -1.8351   -3.2209    0.0000 C   0  0  0  0  0  0  0  0  0  0  0  0
   -2.9499   -4.2246    0.0000 C   0  0  0  0  0  0  0  0  0  0  0  0
   -2.6380   -5.6918    0.0000 O   0  0  0  0  0  0  0  0  0  0  0  0
   -4.3764   -3.7611    0.0000 C   0  0  0  0  0  0  0  0  0  0  0  0
   -4.6883   -2.2939    0.0000 C   0  0  0  0  0  0  0  0  0  0  0  0
   -6.1149   -1.8303    0.0000 C   0  0  0  0  0  0  0  0  0  0  0  0
   -6.4268   -0.3631    0.0000 N   0  0  0  0  0  0  0  0  0  0  0  0
   -7.8533    0.1004    0.0000 N   0  0  0  0  0  0  0  0  0  0  0  0
   -8.1652    1.5676    0.0000 C   0  0  0  0  0  0  0  0  0  0  0  0
   -9.5918    2.0312    0.0000 C   0  0  0  0  0  0  0  0  0  0  0  0
  -10.7065    1.0275    0.0000 N   0  0  0  0  0  0  0  0  0  0  0  0
  -12.1331    1.4910    0.0000 C   0  0  0  0  0  0  0  0  0  0  0  0
  -10.3946   -0.4398    0.0000 C   0  0  0  0  0  0  0  0  0  0  0  0
   -8.9681   -0.9033    0.0000 C   0  0  0  0  0  0  0  0  0  0  0  0
   -3.5736   -1.2902    0.0000 C   0  0  0  0  0  0  0  0  0  0  0  0
   -3.8855    0.1771    0.0000 O   0  0  0  0  0  0  0  0  0  0  0  0
   -2.1470   -1.7537    0.0000 C   0  0  0  0  0  0  0  0  0  0  0  0
   -1.0323   -0.7500    0.0000 C   0  0  0  0  0  0  0  0  0  0  0  0
   -1.0323    0.7500    0.0000 C   0  0  0  0  0  0  0  0  0  0  0  0
   -2.2458    1.6317    0.0000 O   0  0  0  0  0  0  0  0  0  0  0  0
   -5.8674   -3.5964    0.0000 N   0  0  0  0  0  0  0  0  0  0  0  0
   -7.2649   -3.0515    0.0000 C   0  0  0  0  0  0  0  0  0  0  0  0
   -7.9876   -4.3660    0.0000 O   0  0  0  0  0  0  0  0  0  0  0  0
   -8.4738   -2.1635    0.0000 C   0  0  0  0  0  0  0  0  0  0  0  0
   -9.5120   -3.2461    0.0000 C   0  0  0  0  0  0  0  0  0  0  0  0
   -9.4116   -0.9928    0.0000 C   0  0  0  0  0  0  0  0  0  0  0  0
  -10.0145    0.3807    0.0000 C   0  0  0  0  0  0  0  0  0  0  0  0
  -10.2413    1.8634    0.0000 C   0  0  0  0  0  0  0  0  0  0  0  0
  -10.0767    3.3544    0.0000 C   0  0  0  0  0  0  0  0  0  0  0  0
  -11.5334    3.7122    0.0000 C   0  0  0  0  0  0  0  0  0  0  0  0
   -9.5318    4.7519    0.0000 C   0  0  0  0  0  0  0  0  0  0  0  0
  -10.8462    5.4746    0.0000 O   0  0  0  0  0  0  0  0  0  0  0  0
   -8.6437    5.9608    0.0000 C   0  0  0  0  0  0  0  0  0  0  0  0
   -9.7263    6.9990    0.0000 C   0  0  0  0  0  0  0  0  0  0  0  0
   -7.4731    6.8986    0.0000 C   0  0  0  0  0  0  0  0  0  0  0  0
   -8.2501    8.1817    0.0000 O   0  0  0  0  0  0  0  0  0  0  0  0
   -6.0995    7.5015    0.0000 C   0  0  0  0  0  0  0  0  0  0  0  0
   -6.5180    8.9419    0.0000 C   0  0  0  0  0  0  0  0  0  0  0  0
   -4.6168    7.7283    0.0000 C   0  0  0  0  0  0  0  0  0  0  0  0
   -4.6482    9.2280    0.0000 O   0  0  0  0  0  0  0  0  0  0  0  0
   -3.3651   10.0050    0.0000 C   0  0  0  0  0  0  0  0  0  0  0  0
   -3.3965   11.5047    0.0000 C   0  0  0  0  0  0  0  0  0  0  0  0
   -1.9724    9.4480    0.0000 O   0  0  0  0  0  0  0  0  0  0  0  0
   -3.1259    7.5637    0.0000 C   0  0  0  0  0  0  0  0  0  0  0  0
   -2.5931    8.9659    0.0000 C   0  0  0  0  0  0  0  0  0  0  0  0
  1  2  1  0
  3  2  1  1
  3  4  1  0
  4  5  2  0
  5  6  1  0
  6  7  1  0
  7  8  1  6
  7  9  1  0
  9 10  1  0
 10 11  2  0
 11 12  1  0
 11 13  1  0
 13 14  1  0
 13 15  2  0
 15 16  1  0
 16 17  1  0
 16 18  2  0
 18 19  1  0
 19 20  1  0
 20 21  2  0
 21 22  1  0
 22 23  1  0
 23 24  1  0
 24 25  1  0
 25 26  1  0
 25 27  1  0
 27 28  1  0
 19 29  2  0
 29 30  1  0
 29 31  1  0
 31 32  2  0
 32 33  1  0
 33 34  2  0
 18 35  1  0
 35 36  1  0
 36 37  2  0
 36 38  1  0
 38 39  1  0
 38 40  2  0
 40 41  1  0
 41 42  2  0
 42 43  1  0
 43 44  1  6
 43 45  1  0
 45 46  1  6
 45 47  1  0
 47 48  1  1
 47 49  1  0
 49 50  1  1
 49 51  1  0
 51 52  1  1
 51 53  1  0
 53 54  1  6
 54 55  1  0
 55 56  1  0
 55 57  2  0
 53 58  1  0
 58 59  1  6
 58  3  1  0
 33  7  1  0
 32 10  1  0
 31 15  1  0
 28 22  1  0
M  END
>  <assay_description>  (8) 
Inhibition of human liver OATP1B1 expressed in HEK293 Flp-In cells assessed as reduction in E17-betaG uptake by scintillation counting

>  <molecule_pref_name>  (8) 
RIFAMPIN

>  <canonical_smiles>  (8) 
CO[C@H]1/C=C/O[C@@]2(C)Oc3c(C)c(O)c4c(O)c(c(/C=N/N5CCN(C)CC5)c(O)c4c3C2=O)NC(=O)/C(C)=C\C=C\[C@H](C)[C@H](O)[C@@H](C)[C@@H](O)[C@@H](C)[C@H](OC(C)=O)[C@@H]1C

>  <pchembl_value>  (8) 
5.92

>  <standard_type>  (8) 
IC50

>  <standard_relation>  (8) 
=

>  <standard_value>  (8) 
1200.0

>  <standard_units>  (8) 
nM

>  <target_pref_name>  (8) 
Solute carrier organic anion transporter family member 1B1

>  <target_organism>  (8) 
Homo sapiens

$$$$
CHEMBL1144
     RDKit          2D

 30 31  0  0  0  0  0  0  0  0999 V2000
    7.5000   -0.0000    0.0000 C   0  0  0  0  0  0  0  0  0  0  0  0
    6.0000    0.0000    0.0000 C   0  0  0  0  0  0  0  0  0  0  0  0
    5.2500   -1.2990    0.0000 C   0  0  0  0  0  0  0  0  0  0  0  0
    6.0000   -2.5981    0.0000 C   0  0  0  0  0  0  0  0  0  0  0  0
    3.7500   -1.2990    0.0000 C   0  0  0  0  0  0  0  0  0  0  0  0
    3.0000   -2.5981    0.0000 O   0  0  0  0  0  0  0  0  0  0  0  0
    3.0000    0.0000    0.0000 O   0  0  0  0  0  0  0  0  0  0  0  0
    1.5000    0.0000    0.0000 C   0  0  0  0  0  0  0  0  0  0  0  0
    0.7500   -1.2990    0.0000 C   0  0  0  0  0  0  0  0  0  0  0  0
   -0.7500   -1.2990    0.0000 C   0  0  0  0  0  0  0  0  0  0  0  0
   -1.5000   -2.5981    0.0000 O   0  0  0  0  0  0  0  0  0  0  0  0
   -1.5000    0.0000    0.0000 C   0  0  0  0  0  0  0  0  0  0  0  0
   -0.7500    1.2990    0.0000 C   0  0  0  0  0  0  0  0  0  0  0  0
   -1.5000    2.5981    0.0000 C   0  0  0  0  0  0  0  0  0  0  0  0
   -0.7500    3.8971    0.0000 C   0  0  0  0  0  0  0  0  0  0  0  0
    0.7500    3.8971    0.0000 C   0  0  0  0  0  0  0  0  0  0  0  0
    1.5000    5.1962    0.0000 C   0  0  0  0  0  0  0  0  0  0  0  0
    1.5000    2.5981    0.0000 C   0  0  0  0  0  0  0  0  0  0  0  0
    3.0000    2.5981    0.0000 C   0  0  0  0  0  0  0  0  0  0  0  0
    3.7500    3.8971    0.0000 C   0  0  0  0  0  0  0  0  0  0  0  0
    5.2500    3.8971    0.0000 C   0  0  0  0  0  0  0  0  0  0  0  0
    6.0000    5.1962    0.0000 O   0  0  0  0  0  0  0  0  0  0  0  0
    6.0000    2.5981    0.0000 C   0  0  0  0  0  0  0  0  0  0  0  0
    7.5000    2.5981    0.0000 C   0  0  0  0  0  0  0  0  0  0  0  0
    8.2500    3.8971    0.0000 O   0  0  0  0  0  0  0  0  0  0  0  0
    8.2500    1.2990    0.0000 C   0  0  0  0  0  0  0  0  0  0  0  0
    9.7500    1.2990    0.0000 C   0  0  0  0  0  0  0  0  0  0  0  0
   10.5000    2.5981    0.0000 O   0  0  0  0  0  0  0  0  0  0  0  0
   10.5000    0.0000    0.0000 O   0  0  0  0  0  0  0  0  0  0  0  0
    0.7500    1.2990    0.0000 C   0  0  0  0  0  0  0  0  0  0  0  0
  1  2  1  0
  2  3  1  0
  3  4  1  6
  3  5  1  0
  5  6  2  0
  5  7  1  0
  8  7  1  1
  8  9  1  0
  9 10  1  0
 10 11  1  6
 10 12  1  0
 12 13  2  0
 13 14  1  0
 14 15  2  0
 15 16  1  0
 16 17  1  6
 16 18  1  0
 18 19  1  6
 19 20  1  0
 20 21  1  0
 21 22  1  1
 21 23  1  0
 23 24  1  0
 24 25  1  1
 24 26  1  0
 26 27  1  0
 27 28  2  0
 27 29  1  0
 18 30  1  0
 30  8  1  0
 30 13  1  1
M  END
>  <assay_description>  (9) 
Inhibition of human liver OATP1B1 expressed in HEK293 Flp-In cells assessed as reduction in E17-betaG uptake by scintillation counting

>  <molecule_pref_name>  (9) 
PRAVASTATIN

>  <canonical_smiles>  (9) 
CC[C@H](C)C(=O)O[C@H]1C[C@H](O)C=C2C=C[C@H](C)[C@H](CC[C@@H](O)C[C@@H](O)CC(=O)O)[C@H]21

>  <pchembl_value>  (9) 
5.47

>  <standard_type>  (9) 
Ki

>  <standard_relation>  (9) 
=

>  <standard_value>  (9) 
3400.0

>  <standard_units>  (9) 
nM

>  <target_pref_name>  (9) 
Solute carrier organic anion transporter family member 1B1

>  <target_organism>  (9) 
Homo sapiens

$$$$
CHEMBL1144
     RDKit          2D

 30 31  0  0  0  0  0  0  0  0999 V2000
    7.5000   -0.0000    0.0000 C   0  0  0  0  0  0  0  0  0  0  0  0
    6.0000    0.0000    0.0000 C   0  0  0  0  0  0  0  0  0  0  0  0
    5.2500   -1.2990    0.0000 C   0  0  0  0  0  0  0  0  0  0  0  0
    6.0000   -2.5981    0.0000 C   0  0  0  0  0  0  0  0  0  0  0  0
    3.7500   -1.2990    0.0000 C   0  0  0  0  0  0  0  0  0  0  0  0
    3.0000   -2.5981    0.0000 O   0  0  0  0  0  0  0  0  0  0  0  0
    3.0000    0.0000    0.0000 O   0  0  0  0  0  0  0  0  0  0  0  0
    1.5000    0.0000    0.0000 C   0  0  0  0  0  0  0  0  0  0  0  0
    0.7500   -1.2990    0.0000 C   0  0  0  0  0  0  0  0  0  0  0  0
   -0.7500   -1.2990    0.0000 C   0  0  0  0  0  0  0  0  0  0  0  0
   -1.5000   -2.5981    0.0000 O   0  0  0  0  0  0  0  0  0  0  0  0
   -1.5000    0.0000    0.0000 C   0  0  0  0  0  0  0  0  0  0  0  0
   -0.7500    1.2990    0.0000 C   0  0  0  0  0  0  0  0  0  0  0  0
   -1.5000    2.5981    0.0000 C   0  0  0  0  0  0  0  0  0  0  0  0
   -0.7500    3.8971    0.0000 C   0  0  0  0  0  0  0  0  0  0  0  0
    0.7500    3.8971    0.0000 C   0  0  0  0  0  0  0  0  0  0  0  0
    1.5000    5.1962    0.0000 C   0  0  0  0  0  0  0  0  0  0  0  0
    1.5000    2.5981    0.0000 C   0  0  0  0  0  0  0  0  0  0  0  0
    3.0000    2.5981    0.0000 C   0  0  0  0  0  0  0  0  0  0  0  0
    3.7500    3.8971    0.0000 C   0  0  0  0  0  0  0  0  0  0  0  0
    5.2500    3.8971    0.0000 C   0  0  0  0  0  0  0  0  0  0  0  0
    6.0000    5.1962    0.0000 O   0  0  0  0  0  0  0  0  0  0  0  0
    6.0000    2.5981    0.0000 C   0  0  0  0  0  0  0  0  0  0  0  0
    7.5000    2.5981    0.0000 C   0  0  0  0  0  0  0  0  0  0  0  0
    8.2500    3.8971    0.0000 O   0  0  0  0  0  0  0  0  0  0  0  0
    8.2500    1.2990    0.0000 C   0  0  0  0  0  0  0  0  0  0  0  0
    9.7500    1.2990    0.0000 C   0  0  0  0  0  0  0  0  0  0  0  0
   10.5000    2.5981    0.0000 O   0  0  0  0  0  0  0  0  0  0  0  0
   10.5000    0.0000    0.0000 O   0  0  0  0  0  0  0  0  0  0  0  0
    0.7500    1.2990    0.0000 C   0  0  0  0  0  0  0  0  0  0  0  0
  1  2  1  0
  2  3  1  0
  3  4  1  6
  3  5  1  0
  5  6  2  0
  5  7  1  0
  8  7  1  1
  8  9  1  0
  9 10  1  0
 10 11  1  6
 10 12  1  0
 12 13  2  0
 13 14  1  0
 14 15  2  0
 15 16  1  0
 16 17  1  6
 16 18  1  0
 18 19  1  6
 19 20  1  0
 20 21  1  0
 21 22  1  1
 21 23  1  0
 23 24  1  0
 24 25  1  1
 24 26  1  0
 26 27  1  0
 27 28  2  0
 27 29  1  0
 18 30  1  0
 30  8  1  0
 30 13  1  1
M  END
>  <assay_description>  (10) 
Inhibition of human liver OATP1B1 expressed in HEK293 Flp-In cells assessed as reduction in E17-betaG uptake by scintillation counting

>  <molecule_pref_name>  (10) 
PRAVASTATIN

>  <canonical_smiles>  (10) 
CC[C@H](C)C(=O)O[C@H]1C[C@H](O)C=C2C=C[C@H](C)[C@H](CC[C@@H](O)C[C@@H](O)CC(=O)O)[C@H]21

>  <pchembl_value>  (10) 
5.44

>  <standard_type>  (10) 
IC50

>  <standard_relation>  (10) 
=

>  <standard_value>  (10) 
3600.0

>  <standard_units>  (10) 
nM

>  <target_pref_name>  (10) 
Solute carrier organic anion transporter family member 1B1

>  <target_organism>  (10) 
Homo sapiens

$$$$
CHEMBL15177
     RDKit          2D

 34 36  0  0  0  0  0  0  0  0999 V2000
   14.2500   -9.0933    0.0000 C   0  0  0  0  0  0  0  0  0  0  0  0
   12.7500   -9.0933    0.0000 N   0  0  0  0  0  0  0  0  0  0  0  0
   12.0000  -10.3923    0.0000 C   0  0  0  0  0  0  0  0  0  0  0  0
   12.0000   -7.7942    0.0000 C   0  0  0  0  0  0  0  0  0  0  0  0
   12.7500   -6.4952    0.0000 O   0  0  0  0  0  0  0  0  0  0  0  0
   10.5000   -7.7942    0.0000 C   0  0  0  0  0  0  0  0  0  0  0  0
    9.7500   -6.4952    0.0000 C   0  0  0  0  0  0  0  0  0  0  0  0
    8.2500   -6.4952    0.0000 S   0  0  0  0  0  0  0  0  0  0  0  0
    7.5000   -5.1962    0.0000 C   0  0  0  0  0  0  0  0  0  0  0  0
    8.2500   -3.8971    0.0000 S   0  0  0  0  0  0  0  0  0  0  0  0
    9.7500   -3.8971    0.0000 C   0  0  0  0  0  0  0  0  0  0  0  0
   10.5000   -2.5981    0.0000 C   0  0  0  0  0  0  0  0  0  0  0  0
   12.0000   -2.5981    0.0000 C   0  0  0  0  0  0  0  0  0  0  0  0
   12.7500   -3.8971    0.0000 O   0  0  0  0  0  0  0  0  0  0  0  0
   12.7500   -1.2990    0.0000 O   0  0  0  0  0  0  0  0  0  0  0  0
    6.0000   -5.1962    0.0000 C   0  0  0  0  0  0  0  0  0  0  0  0
    5.2500   -6.4952    0.0000 C   0  0  0  0  0  0  0  0  0  0  0  0
    3.7500   -6.4952    0.0000 C   0  0  0  0  0  0  0  0  0  0  0  0
    3.0000   -5.1962    0.0000 C   0  0  0  0  0  0  0  0  0  0  0  0
    3.7500   -3.8971    0.0000 C   0  0  0  0  0  0  0  0  0  0  0  0
    3.0000   -2.5981    0.0000 C   0  0  0  0  0  0  0  0  0  0  0  0
    1.5000   -2.5981    0.0000 C   0  0  0  0  0  0  0  0  0  0  0  0
    0.7500   -1.2990    0.0000 C   0  0  0  0  0  0  0  0  0  0  0  0
    1.5000    0.0000    0.0000 C   0  0  0  0  0  0  0  0  0  0  0  0
    0.7500    1.2990    0.0000 C   0  0  0  0  0  0  0  0  0  0  0  0
   -0.7500    1.2990    0.0000 C   0  0  0  0  0  0  0  0  0  0  0  0
   -1.5000    2.5981    0.0000 C   0  0  0  0  0  0  0  0  0  0  0  0
   -3.0000    2.5981    0.0000 C   0  0  0  0  0  0  0  0  0  0  0  0
   -3.7500    1.2990    0.0000 C   0  0  0  0  0  0  0  0  0  0  0  0
   -5.2500    1.2990    0.0000 Cl  0  0  0  0  0  0  0  0  0  0  0  0
   -3.0000    0.0000    0.0000 C   0  0  0  0  0  0  0  0  0  0  0  0
   -1.5000    0.0000    0.0000 C   0  0  0  0  0  0  0  0  0  0  0  0
   -0.7500   -1.2990    0.0000 N   0  0  0  0  0  0  0  0  0  0  0  0
    5.2500   -3.8971    0.0000 C   0  0  0  0  0  0  0  0  0  0  0  0
  1  2  1  0
  2  3  1  0
  2  4  1  0
  4  5  2  0
  4  6  1  0
  6  7  1  0
  7  8  1  0
  8  9  1  0
  9 10  1  0
 10 11  1  0
 11 12  1  0
 12 13  1  0
 13 14  2  0
 13 15  1  0
  9 16  1  0
 16 17  2  0
 17 18  1  0
 18 19  2  0
 19 20  1  0
 20 21  1  0
 21 22  2  0
 22 23  1  0
 23 24  2  0
 24 25  1  0
 25 26  2  0
 26 27  1  0
 27 28  2  0
 28 29  1  0
 29 30  1  0
 29 31  2  0
 31 32  1  0
 32 33  2  0
 20 34  2  0
 34 16  1  0
 33 23  1  0
 32 26  1  0
M  END
>  <assay_description>  (11) 
Inhibition of human liver OATP1B1 expressed in HEK293 Flp-In cells assessed as reduction in E17-betaG uptake by scintillation counting

>  <molecule_pref_name>  (11) 
MK-571

>  <canonical_smiles>  (11) 
CN(C)C(=O)CCSC(SCCC(=O)O)c1cccc(/C=C/c2ccc3ccc(Cl)cc3n2)c1

>  <pchembl_value>  (11) 
5.37

>  <standard_type>  (11) 
Ki

>  <standard_relation>  (11) 
=

>  <standard_value>  (11) 
4300.0

>  <standard_units>  (11) 
nM

>  <target_pref_name>  (11) 
Solute carrier organic anion transporter family member 1B1

>  <target_organism>  (11) 
Homo sapiens

$$$$
CHEMBL15177
     RDKit          2D

 34 36  0  0  0  0  0  0  0  0999 V2000
   14.2500   -9.0933    0.0000 C   0  0  0  0  0  0  0  0  0  0  0  0
   12.7500   -9.0933    0.0000 N   0  0  0  0  0  0  0  0  0  0  0  0
   12.0000  -10.3923    0.0000 C   0  0  0  0  0  0  0  0  0  0  0  0
   12.0000   -7.7942    0.0000 C   0  0  0  0  0  0  0  0  0  0  0  0
   12.7500   -6.4952    0.0000 O   0  0  0  0  0  0  0  0  0  0  0  0
   10.5000   -7.7942    0.0000 C   0  0  0  0  0  0  0  0  0  0  0  0
    9.7500   -6.4952    0.0000 C   0  0  0  0  0  0  0  0  0  0  0  0
    8.2500   -6.4952    0.0000 S   0  0  0  0  0  0  0  0  0  0  0  0
    7.5000   -5.1962    0.0000 C   0  0  0  0  0  0  0  0  0  0  0  0
    8.2500   -3.8971    0.0000 S   0  0  0  0  0  0  0  0  0  0  0  0
    9.7500   -3.8971    0.0000 C   0  0  0  0  0  0  0  0  0  0  0  0
   10.5000   -2.5981    0.0000 C   0  0  0  0  0  0  0  0  0  0  0  0
   12.0000   -2.5981    0.0000 C   0  0  0  0  0  0  0  0  0  0  0  0
   12.7500   -3.8971    0.0000 O   0  0  0  0  0  0  0  0  0  0  0  0
   12.7500   -1.2990    0.0000 O   0  0  0  0  0  0  0  0  0  0  0  0
    6.0000   -5.1962    0.0000 C   0  0  0  0  0  0  0  0  0  0  0  0
    5.2500   -6.4952    0.0000 C   0  0  0  0  0  0  0  0  0  0  0  0
    3.7500   -6.4952    0.0000 C   0  0  0  0  0  0  0  0  0  0  0  0
    3.0000   -5.1962    0.0000 C   0  0  0  0  0  0  0  0  0  0  0  0
    3.7500   -3.8971    0.0000 C   0  0  0  0  0  0  0  0  0  0  0  0
    3.0000   -2.5981    0.0000 C   0  0  0  0  0  0  0  0  0  0  0  0
    1.5000   -2.5981    0.0000 C   0  0  0  0  0  0  0  0  0  0  0  0
    0.7500   -1.2990    0.0000 C   0  0  0  0  0  0  0  0  0  0  0  0
    1.5000    0.0000    0.0000 C   0  0  0  0  0  0  0  0  0  0  0  0
    0.7500    1.2990    0.0000 C   0  0  0  0  0  0  0  0  0  0  0  0
   -0.7500    1.2990    0.0000 C   0  0  0  0  0  0  0  0  0  0  0  0
   -1.5000    2.5981    0.0000 C   0  0  0  0  0  0  0  0  0  0  0  0
   -3.0000    2.5981    0.0000 C   0  0  0  0  0  0  0  0  0  0  0  0
   -3.7500    1.2990    0.0000 C   0  0  0  0  0  0  0  0  0  0  0  0
   -5.2500    1.2990    0.0000 Cl  0  0  0  0  0  0  0  0  0  0  0  0
   -3.0000    0.0000    0.0000 C   0  0  0  0  0  0  0  0  0  0  0  0
   -1.5000    0.0000    0.0000 C   0  0  0  0  0  0  0  0  0  0  0  0
   -0.7500   -1.2990    0.0000 N   0  0  0  0  0  0  0  0  0  0  0  0
    5.2500   -3.8971    0.0000 C   0  0  0  0  0  0  0  0  0  0  0  0
  1  2  1  0
  2  3  1  0
  2  4  1  0
  4  5  2  0
  4  6  1  0
  6  7  1  0
  7  8  1  0
  8  9  1  0
  9 10  1  0
 10 11  1  0
 11 12  1  0
 12 13  1  0
 13 14  2  0
 13 15  1  0
  9 16  1  0
 16 17  2  0
 17 18  1  0
 18 19  2  0
 19 20  1  0
 20 21  1  0
 21 22  2  0
 22 23  1  0
 23 24  2  0
 24 25  1  0
 25 26  2  0
 26 27  1  0
 27 28  2  0
 28 29  1  0
 29 30  1  0
 29 31  2  0
 31 32  1  0
 32 33  2  0
 20 34  2  0
 34 16  1  0
 33 23  1  0
 32 26  1  0
M  END
>  <assay_description>  (12) 
Inhibition of human liver OATP1B1 expressed in HEK293 Flp-In cells assessed as reduction in E17-betaG uptake by scintillation counting

>  <molecule_pref_name>  (12) 
MK-571

>  <canonical_smiles>  (12) 
CN(C)C(=O)CCSC(SCCC(=O)O)c1cccc(/C=C/c2ccc3ccc(Cl)cc3n2)c1

>  <pchembl_value>  (12) 
5.36

>  <standard_type>  (12) 
IC50

>  <standard_relation>  (12) 
=

>  <standard_value>  (12) 
4400.0

>  <standard_units>  (12) 
nM

>  <target_pref_name>  (12) 
Solute carrier organic anion transporter family member 1B1

>  <target_organism>  (12) 
Homo sapiens

$$$$
CHEMBL6
     RDKit          2D

 25 27  0  0  0  0  0  0  0  0999 V2000
    3.7500   -1.2990    0.0000 C   0  0  0  0  0  0  0  0  0  0  0  0
    3.0000    0.0000    0.0000 O   0  0  0  0  0  0  0  0  0  0  0  0
    1.5000    0.0000    0.0000 C   0  0  0  0  0  0  0  0  0  0  0  0
    0.7500   -1.2990    0.0000 C   0  0  0  0  0  0  0  0  0  0  0  0
   -0.7500   -1.2990    0.0000 C   0  0  0  0  0  0  0  0  0  0  0  0
   -1.5000    0.0000    0.0000 C   0  0  0  0  0  0  0  0  0  0  0  0
   -0.7500    1.2990    0.0000 C   0  0  0  0  0  0  0  0  0  0  0  0
    0.7500    1.2990    0.0000 C   0  0  0  0  0  0  0  0  0  0  0  0
   -1.7537    2.4138    0.0000 C   0  0  0  0  0  0  0  0  0  0  0  0
   -1.4418    3.8810    0.0000 C   0  0  0  0  0  0  0  0  0  0  0  0
   -2.5565    4.8847    0.0000 C   0  0  0  0  0  0  0  0  0  0  0  0
   -3.9831    4.4211    0.0000 O   0  0  0  0  0  0  0  0  0  0  0  0
   -2.2447    6.3519    0.0000 O   0  0  0  0  0  0  0  0  0  0  0  0
   -3.1240    1.8037    0.0000 C   0  0  0  0  0  0  0  0  0  0  0  0
   -4.4231    2.5537    0.0000 C   0  0  0  0  0  0  0  0  0  0  0  0
   -2.9672    0.3119    0.0000 N   0  0  0  0  0  0  0  0  0  0  0  0
   -4.0819   -0.6918    0.0000 C   0  0  0  0  0  0  0  0  0  0  0  0
   -3.7701   -2.1590    0.0000 O   0  0  0  0  0  0  0  0  0  0  0  0
   -5.5085   -0.2283    0.0000 C   0  0  0  0  0  0  0  0  0  0  0  0
   -5.8204    1.2389    0.0000 C   0  0  0  0  0  0  0  0  0  0  0  0
   -7.2470    1.7024    0.0000 C   0  0  0  0  0  0  0  0  0  0  0  0
   -8.3617    0.6987    0.0000 C   0  0  0  0  0  0  0  0  0  0  0  0
   -9.7883    1.1623    0.0000 Cl  0  0  0  0  0  0  0  0  0  0  0  0
   -8.0498   -0.7685    0.0000 C   0  0  0  0  0  0  0  0  0  0  0  0
   -6.6232   -1.2320    0.0000 C   0  0  0  0  0  0  0  0  0  0  0  0
  1  2  1  0
  2  3  1  0
  3  4  2  0
  4  5  1  0
  5  6  2  0
  6  7  1  0
  7  8  2  0
  7  9  1  0
  9 10  1  0
 10 11  1  0
 11 12  2  0
 11 13  1  0
  9 14  2  0
 14 15  1  0
 14 16  1  0
 16 17  1  0
 17 18  2  0
 17 19  1  0
 19 20  2  0
 20 21  1  0
 21 22  2  0
 22 23  1  0
 22 24  1  0
 24 25  2  0
  8  3  1  0
 25 19  1  0
 16  6  1  0
M  END
>  <assay_description>  (13) 
Inhibition of human liver OATP1B1 expressed in HEK293 Flp-In cells assessed as reduction in E17-betaG uptake by scintillation counting

>  <molecule_pref_name>  (13) 
INDOMETHACIN

>  <canonical_smiles>  (13) 
COc1ccc2c(c1)c(CC(=O)O)c(C)n2C(=O)c1ccc(Cl)cc1

>  <pchembl_value>  (13) 
4.92

>  <standard_type>  (13) 
IC50

>  <standard_relation>  (13) 
=

>  <standard_value>  (13) 
12000.0

>  <standard_units>  (13) 
nM

>  <target_pref_name>  (13) 
Solute carrier organic anion transporter family member 1B1

>  <target_organism>  (13) 
Homo sapiens

$$$$
CHEMBL6
     RDKit          2D

 25 27  0  0  0  0  0  0  0  0999 V2000
    3.7500   -1.2990    0.0000 C   0  0  0  0  0  0  0  0  0  0  0  0
    3.0000    0.0000    0.0000 O   0  0  0  0  0  0  0  0  0  0  0  0
    1.5000    0.0000    0.0000 C   0  0  0  0  0  0  0  0  0  0  0  0
    0.7500   -1.2990    0.0000 C   0  0  0  0  0  0  0  0  0  0  0  0
   -0.7500   -1.2990    0.0000 C   0  0  0  0  0  0  0  0  0  0  0  0
   -1.5000    0.0000    0.0000 C   0  0  0  0  0  0  0  0  0  0  0  0
   -0.7500    1.2990    0.0000 C   0  0  0  0  0  0  0  0  0  0  0  0
    0.7500    1.2990    0.0000 C   0  0  0  0  0  0  0  0  0  0  0  0
   -1.7537    2.4138    0.0000 C   0  0  0  0  0  0  0  0  0  0  0  0
   -1.4418    3.8810    0.0000 C   0  0  0  0  0  0  0  0  0  0  0  0
   -2.5565    4.8847    0.0000 C   0  0  0  0  0  0  0  0  0  0  0  0
   -3.9831    4.4211    0.0000 O   0  0  0  0  0  0  0  0  0  0  0  0
   -2.2447    6.3519    0.0000 O   0  0  0  0  0  0  0  0  0  0  0  0
   -3.1240    1.8037    0.0000 C   0  0  0  0  0  0  0  0  0  0  0  0
   -4.4231    2.5537    0.0000 C   0  0  0  0  0  0  0  0  0  0  0  0
   -2.9672    0.3119    0.0000 N   0  0  0  0  0  0  0  0  0  0  0  0
   -4.0819   -0.6918    0.0000 C   0  0  0  0  0  0  0  0  0  0  0  0
   -3.7701   -2.1590    0.0000 O   0  0  0  0  0  0  0  0  0  0  0  0
   -5.5085   -0.2283    0.0000 C   0  0  0  0  0  0  0  0  0  0  0  0
   -5.8204    1.2389    0.0000 C   0  0  0  0  0  0  0  0  0  0  0  0
   -7.2470    1.7024    0.0000 C   0  0  0  0  0  0  0  0  0  0  0  0
   -8.3617    0.6987    0.0000 C   0  0  0  0  0  0  0  0  0  0  0  0
   -9.7883    1.1623    0.0000 Cl  0  0  0  0  0  0  0  0  0  0  0  0
   -8.0498   -0.7685    0.0000 C   0  0  0  0  0  0  0  0  0  0  0  0
   -6.6232   -1.2320    0.0000 C   0  0  0  0  0  0  0  0  0  0  0  0
  1  2  1  0
  2  3  1  0
  3  4  2  0
  4  5  1  0
  5  6  2  0
  6  7  1  0
  7  8  2  0
  7  9  1  0
  9 10  1  0
 10 11  1  0
 11 12  2  0
 11 13  1  0
  9 14  2  0
 14 15  1  0
 14 16  1  0
 16 17  1  0
 17 18  2  0
 17 19  1  0
 19 20  2  0
 20 21  1  0
 21 22  2  0
 22 23  1  0
 22 24  1  0
 24 25  2  0
  8  3  1  0
 25 19  1  0
 16  6  1  0
M  END
>  <assay_description>  (14) 
Inhibition of human liver OATP1B1 expressed in HEK293 Flp-In cells assessed as reduction in E17-betaG uptake by scintillation counting

>  <molecule_pref_name>  (14) 
INDOMETHACIN

>  <canonical_smiles>  (14) 
COc1ccc2c(c1)c(CC(=O)O)c(C)n2C(=O)c1ccc(Cl)cc1

>  <pchembl_value>  (14) 
4.96

>  <standard_type>  (14) 
Ki

>  <standard_relation>  (14) 
=

>  <standard_value>  (14) 
11000.0

>  <standard_units>  (14) 
nM

>  <target_pref_name>  (14) 
Solute carrier organic anion transporter family member 1B1

>  <target_organism>  (14) 
Homo sapiens

$$$$
CHEMBL343002
     RDKit          2D

 34 39  0  0  0  0  0  0  0  0999 V2000
   -1.2990  -11.8573    0.0000 C   0  0  0  0  0  0  0  0  0  0  0  0
   -1.2990  -10.3573    0.0000 C   0  0  0  0  0  0  0  0  0  0  0  0
    0.0000   -9.6073    0.0000 O   0  0  0  0  0  0  0  0  0  0  0  0
    0.0000   -8.1073    0.0000 C   0  0  0  0  0  0  0  0  0  0  0  0
   -1.2990   -7.3573    0.0000 C   0  0  0  0  0  0  0  0  0  0  0  0
   -1.2990   -5.8573    0.0000 C   0  0  0  0  0  0  0  0  0  0  0  0
   -0.0000   -5.1073    0.0000 C   0  0  0  0  0  0  0  0  0  0  0  0
   -0.0000   -3.6073    0.0000 C   0  0  0  0  0  0  0  0  0  0  0  0
    1.2135   -2.7256    0.0000 N   0  0  0  0  0  0  0  0  0  0  0  0
    0.7500   -1.2990    0.0000 C   0  0  0  0  0  0  0  0  0  0  0  0
    1.5000    0.0000    0.0000 C   0  0  0  0  0  0  0  0  0  0  0  0
    0.7500    1.2990    0.0000 C   0  0  0  0  0  0  0  0  0  0  0  0
    1.5000    2.5981    0.0000 C   0  0  0  0  0  0  0  0  0  0  0  0
    2.9918    2.7549    0.0000 N   0  0  0  0  0  0  0  0  0  0  0  0
    3.3037    4.2221    0.0000 C   0  0  0  0  0  0  0  0  0  0  0  0
    4.6027    4.9721    0.0000 C   0  0  0  0  0  0  0  0  0  0  0  0
    4.6027    6.4721    0.0000 C   0  0  0  0  0  0  0  0  0  0  0  0
    5.9017    7.2221    0.0000 N   0  0  0  0  0  0  0  0  0  0  0  0
    7.2008    6.4721    0.0000 C   0  0  0  0  0  0  0  0  0  0  0  0
    8.4998    7.2221    0.0000 C   0  0  0  0  0  0  0  0  0  0  0  0
    8.4998    8.7221    0.0000 N   0  0  0  0  0  0  0  0  0  0  0  0
    9.7988    9.4721    0.0000 C   0  0  0  0  0  0  0  0  0  0  0  0
    7.2008    9.4721    0.0000 C   0  0  0  0  0  0  0  0  0  0  0  0
    5.9017    8.7221    0.0000 C   0  0  0  0  0  0  0  0  0  0  0  0
    3.3037    7.2221    0.0000 C   0  0  0  0  0  0  0  0  0  0  0  0
    2.0046    6.4721    0.0000 C   0  0  0  0  0  0  0  0  0  0  0  0
    2.0046    4.9721    0.0000 C   0  0  0  0  0  0  0  0  0  0  0  0
    0.8899    3.9684    0.0000 N   0  0  0  0  0  0  0  0  0  0  0  0
   -0.7500    1.2990    0.0000 C   0  0  0  0  0  0  0  0  0  0  0  0
   -1.5000    0.0000    0.0000 C   0  0  0  0  0  0  0  0  0  0  0  0
   -0.7500   -1.2990    0.0000 C   0  0  0  0  0  0  0  0  0  0  0  0
   -1.2135   -2.7256    0.0000 N   0  0  0  0  0  0  0  0  0  0  0  0
    1.2990   -5.8573    0.0000 C   0  0  0  0  0  0  0  0  0  0  0  0
    1.2990   -7.3573    0.0000 C   0  0  0  0  0  0  0  0  0  0  0  0
  1  2  1  0
  2  3  1  0
  3  4  1  0
  4  5  2  0
  5  6  1  0
  6  7  2  0
  7  8  1  0
  8  9  2  0
  9 10  1  0
 10 11  2  0
 11 12  1  0
 12 13  1  0
 13 14  2  0
 14 15  1  0
 15 16  2  0
 16 17  1  0
 17 18  1  0
 18 19  1  0
 19 20  1  0
 20 21  1  0
 21 22  1  0
 21 23  1  0
 23 24  1  0
 17 25  2  0
 25 26  1  0
 26 27  2  0
 27 28  1  0
 12 29  2  0
 29 30  1  0
 30 31  2  0
 31 32  1  0
  7 33  1  0
 33 34  2  0
 34  4  1  0
 32  8  1  0
 31 10  1  0
 28 13  1  0
 27 15  1  0
 24 18  1  0
M  END
>  <assay_description>  (15) 
Inhibition of human liver OATP1B1 expressed in HEK293 Flp-In cells assessed as reduction in E17-betaG uptake by scintillation counting

>  <molecule_pref_name>  (15) 
None

>  <canonical_smiles>  (15) 
CCOc1ccc(-c2nc3cc(-c4nc5cc(N6CCN(C)CC6)ccc5[nH]4)ccc3[nH]2)cc1

>  <pchembl_value>  (15) 
4.75

>  <standard_type>  (15) 
Ki

>  <standard_relation>  (15) 
=

>  <standard_value>  (15) 
18000.0

>  <standard_units>  (15) 
nM

>  <target_pref_name>  (15) 
Solute carrier organic anion transporter family member 1B1

>  <target_organism>  (15) 
Homo sapiens

$$$$
CHEMBL343002
     RDKit          2D

 34 39  0  0  0  0  0  0  0  0999 V2000
   -1.2990  -11.8573    0.0000 C   0  0  0  0  0  0  0  0  0  0  0  0
   -1.2990  -10.3573    0.0000 C   0  0  0  0  0  0  0  0  0  0  0  0
    0.0000   -9.6073    0.0000 O   0  0  0  0  0  0  0  0  0  0  0  0
    0.0000   -8.1073    0.0000 C   0  0  0  0  0  0  0  0  0  0  0  0
   -1.2990   -7.3573    0.0000 C   0  0  0  0  0  0  0  0  0  0  0  0
   -1.2990   -5.8573    0.0000 C   0  0  0  0  0  0  0  0  0  0  0  0
   -0.0000   -5.1073    0.0000 C   0  0  0  0  0  0  0  0  0  0  0  0
   -0.0000   -3.6073    0.0000 C   0  0  0  0  0  0  0  0  0  0  0  0
    1.2135   -2.7256    0.0000 N   0  0  0  0  0  0  0  0  0  0  0  0
    0.7500   -1.2990    0.0000 C   0  0  0  0  0  0  0  0  0  0  0  0
    1.5000    0.0000    0.0000 C   0  0  0  0  0  0  0  0  0  0  0  0
    0.7500    1.2990    0.0000 C   0  0  0  0  0  0  0  0  0  0  0  0
    1.5000    2.5981    0.0000 C   0  0  0  0  0  0  0  0  0  0  0  0
    2.9918    2.7549    0.0000 N   0  0  0  0  0  0  0  0  0  0  0  0
    3.3037    4.2221    0.0000 C   0  0  0  0  0  0  0  0  0  0  0  0
    4.6027    4.9721    0.0000 C   0  0  0  0  0  0  0  0  0  0  0  0
    4.6027    6.4721    0.0000 C   0  0  0  0  0  0  0  0  0  0  0  0
    5.9017    7.2221    0.0000 N   0  0  0  0  0  0  0  0  0  0  0  0
    7.2008    6.4721    0.0000 C   0  0  0  0  0  0  0  0  0  0  0  0
    8.4998    7.2221    0.0000 C   0  0  0  0  0  0  0  0  0  0  0  0
    8.4998    8.7221    0.0000 N   0  0  0  0  0  0  0  0  0  0  0  0
    9.7988    9.4721    0.0000 C   0  0  0  0  0  0  0  0  0  0  0  0
    7.2008    9.4721    0.0000 C   0  0  0  0  0  0  0  0  0  0  0  0
    5.9017    8.7221    0.0000 C   0  0  0  0  0  0  0  0  0  0  0  0
    3.3037    7.2221    0.0000 C   0  0  0  0  0  0  0  0  0  0  0  0
    2.0046    6.4721    0.0000 C   0  0  0  0  0  0  0  0  0  0  0  0
    2.0046    4.9721    0.0000 C   0  0  0  0  0  0  0  0  0  0  0  0
    0.8899    3.9684    0.0000 N   0  0  0  0  0  0  0  0  0  0  0  0
   -0.7500    1.2990    0.0000 C   0  0  0  0  0  0  0  0  0  0  0  0
   -1.5000    0.0000    0.0000 C   0  0  0  0  0  0  0  0  0  0  0  0
   -0.7500   -1.2990    0.0000 C   0  0  0  0  0  0  0  0  0  0  0  0
   -1.2135   -2.7256    0.0000 N   0  0  0  0  0  0  0  0  0  0  0  0
    1.2990   -5.8573    0.0000 C   0  0  0  0  0  0  0  0  0  0  0  0
    1.2990   -7.3573    0.0000 C   0  0  0  0  0  0  0  0  0  0  0  0
  1  2  1  0
  2  3  1  0
  3  4  1  0
  4  5  2  0
  5  6  1  0
  6  7  2  0
  7  8  1  0
  8  9  2  0
  9 10  1  0
 10 11  2  0
 11 12  1  0
 12 13  1  0
 13 14  2  0
 14 15  1  0
 15 16  2  0
 16 17  1  0
 17 18  1  0
 18 19  1  0
 19 20  1  0
 20 21  1  0
 21 22  1  0
 21 23  1  0
 23 24  1  0
 17 25  2  0
 25 26  1  0
 26 27  2  0
 27 28  1  0
 12 29  2  0
 29 30  1  0
 30 31  2  0
 31 32  1  0
  7 33  1  0
 33 34  2  0
 34  4  1  0
 32  8  1  0
 31 10  1  0
 28 13  1  0
 27 15  1  0
 24 18  1  0
M  END
>  <assay_description>  (16) 
Inhibition of human liver OATP1B1 expressed in HEK293 Flp-In cells assessed as reduction in E17-betaG uptake by scintillation counting

>  <molecule_pref_name>  (16) 
None

>  <canonical_smiles>  (16) 
CCOc1ccc(-c2nc3cc(-c4nc5cc(N6CCN(C)CC6)ccc5[nH]4)ccc3[nH]2)cc1

>  <pchembl_value>  (16) 
4.72

>  <standard_type>  (16) 
IC50

>  <standard_relation>  (16) 
=

>  <standard_value>  (16) 
19000.0

>  <standard_units>  (16) 
nM

>  <target_pref_name>  (16) 
Solute carrier organic anion transporter family member 1B1

>  <target_organism>  (16) 
Homo sapiens

$$$$
CHEMBL553
     RDKit          2D

 29 31  0  0  0  0  0  0  0  0999 V2000
    6.7500    1.2990    0.0000 C   0  0  0  0  0  0  0  0  0  0  0  0
    6.0000   -0.0000    0.0000 C   0  0  0  0  0  0  0  0  0  0  0  0
    5.2500   -1.2990    0.0000 C   0  0  0  0  0  0  0  0  0  0  0  0
    6.0000   -2.5981    0.0000 C   0  0  0  0  0  0  0  0  0  0  0  0
    5.2500   -3.8971    0.0000 C   0  0  0  0  0  0  0  0  0  0  0  0
    3.7500   -3.8971    0.0000 C   0  0  0  0  0  0  0  0  0  0  0  0
    3.0000   -2.5981    0.0000 C   0  0  0  0  0  0  0  0  0  0  0  0
    1.5000   -2.5981    0.0000 N   0  0  0  0  0  0  0  0  0  0  0  0
    0.7500   -1.2990    0.0000 C   0  0  0  0  0  0  0  0  0  0  0  0
    1.5000    0.0000    0.0000 N   0  0  0  0  0  0  0  0  0  0  0  0
    0.7500    1.2990    0.0000 C   0  0  0  0  0  0  0  0  0  0  0  0
   -0.7500    1.2990    0.0000 N   0  0  0  0  0  0  0  0  0  0  0  0
   -1.5000    0.0000    0.0000 C   0  0  0  0  0  0  0  0  0  0  0  0
   -3.0000    0.0000    0.0000 C   0  0  0  0  0  0  0  0  0  0  0  0
   -3.7500   -1.2990    0.0000 C   0  0  0  0  0  0  0  0  0  0  0  0
   -5.2500   -1.2990    0.0000 O   0  0  0  0  0  0  0  0  0  0  0  0
   -6.0000    0.0000    0.0000 C   0  0  0  0  0  0  0  0  0  0  0  0
   -7.5000   -0.0000    0.0000 C   0  0  0  0  0  0  0  0  0  0  0  0
   -8.2500    1.2990    0.0000 O   0  0  0  0  0  0  0  0  0  0  0  0
   -9.7500    1.2990    0.0000 C   0  0  0  0  0  0  0  0  0  0  0  0
   -3.0000   -2.5981    0.0000 C   0  0  0  0  0  0  0  0  0  0  0  0
   -3.7500   -3.8971    0.0000 O   0  0  0  0  0  0  0  0  0  0  0  0
   -5.2500   -3.8971    0.0000 C   0  0  0  0  0  0  0  0  0  0  0  0
   -6.0000   -5.1962    0.0000 C   0  0  0  0  0  0  0  0  0  0  0  0
   -7.5000   -5.1962    0.0000 O   0  0  0  0  0  0  0  0  0  0  0  0
   -8.2500   -6.4952    0.0000 C   0  0  0  0  0  0  0  0  0  0  0  0
   -1.5000   -2.5981    0.0000 C   0  0  0  0  0  0  0  0  0  0  0  0
   -0.7500   -1.2990    0.0000 C   0  0  0  0  0  0  0  0  0  0  0  0
    3.7500   -1.2990    0.0000 C   0  0  0  0  0  0  0  0  0  0  0  0
  1  2  3  0
  2  3  1  0
  3  4  2  0
  4  5  1  0
  5  6  2  0
  6  7  1  0
  7  8  1  0
  8  9  1  0
  9 10  2  0
 10 11  1  0
 11 12  2  0
 12 13  1  0
 13 14  2  0
 14 15  1  0
 15 16  1  0
 16 17  1  0
 17 18  1  0
 18 19  1  0
 19 20  1  0
 15 21  2  0
 21 22  1  0
 22 23  1  0
 23 24  1  0
 24 25  1  0
 25 26  1  0
 21 27  1  0
 27 28  2  0
  7 29  2  0
 29  3  1  0
 28  9  1  0
 28 13  1  0
M  END
>  <assay_description>  (17) 
Inhibition of human liver OATP1B1 expressed in HEK293 Flp-In cells assessed as reduction in E17-betaG uptake by scintillation counting

>  <molecule_pref_name>  (17) 
ERLOTINIB

>  <canonical_smiles>  (17) 
C#Cc1cccc(Nc2ncnc3cc(OCCOC)c(OCCOC)cc23)c1

>  <pchembl_value>  (17) 
4.68

>  <standard_type>  (17) 
IC50

>  <standard_relation>  (17) 
=

>  <standard_value>  (17) 
21000.0

>  <standard_units>  (17) 
nM

>  <target_pref_name>  (17) 
Solute carrier organic anion transporter family member 1B1

>  <target_organism>  (17) 
Homo sapiens

$$$$
CHEMBL553
     RDKit          2D

 29 31  0  0  0  0  0  0  0  0999 V2000
    6.7500    1.2990    0.0000 C   0  0  0  0  0  0  0  0  0  0  0  0
    6.0000   -0.0000    0.0000 C   0  0  0  0  0  0  0  0  0  0  0  0
    5.2500   -1.2990    0.0000 C   0  0  0  0  0  0  0  0  0  0  0  0
    6.0000   -2.5981    0.0000 C   0  0  0  0  0  0  0  0  0  0  0  0
    5.2500   -3.8971    0.0000 C   0  0  0  0  0  0  0  0  0  0  0  0
    3.7500   -3.8971    0.0000 C   0  0  0  0  0  0  0  0  0  0  0  0
    3.0000   -2.5981    0.0000 C   0  0  0  0  0  0  0  0  0  0  0  0
    1.5000   -2.5981    0.0000 N   0  0  0  0  0  0  0  0  0  0  0  0
    0.7500   -1.2990    0.0000 C   0  0  0  0  0  0  0  0  0  0  0  0
    1.5000    0.0000    0.0000 N   0  0  0  0  0  0  0  0  0  0  0  0
    0.7500    1.2990    0.0000 C   0  0  0  0  0  0  0  0  0  0  0  0
   -0.7500    1.2990    0.0000 N   0  0  0  0  0  0  0  0  0  0  0  0
   -1.5000    0.0000    0.0000 C   0  0  0  0  0  0  0  0  0  0  0  0
   -3.0000    0.0000    0.0000 C   0  0  0  0  0  0  0  0  0  0  0  0
   -3.7500   -1.2990    0.0000 C   0  0  0  0  0  0  0  0  0  0  0  0
   -5.2500   -1.2990    0.0000 O   0  0  0  0  0  0  0  0  0  0  0  0
   -6.0000    0.0000    0.0000 C   0  0  0  0  0  0  0  0  0  0  0  0
   -7.5000   -0.0000    0.0000 C   0  0  0  0  0  0  0  0  0  0  0  0
   -8.2500    1.2990    0.0000 O   0  0  0  0  0  0  0  0  0  0  0  0
   -9.7500    1.2990    0.0000 C   0  0  0  0  0  0  0  0  0  0  0  0
   -3.0000   -2.5981    0.0000 C   0  0  0  0  0  0  0  0  0  0  0  0
   -3.7500   -3.8971    0.0000 O   0  0  0  0  0  0  0  0  0  0  0  0
   -5.2500   -3.8971    0.0000 C   0  0  0  0  0  0  0  0  0  0  0  0
   -6.0000   -5.1962    0.0000 C   0  0  0  0  0  0  0  0  0  0  0  0
   -7.5000   -5.1962    0.0000 O   0  0  0  0  0  0  0  0  0  0  0  0
   -8.2500   -6.4952    0.0000 C   0  0  0  0  0  0  0  0  0  0  0  0
   -1.5000   -2.5981    0.0000 C   0  0  0  0  0  0  0  0  0  0  0  0
   -0.7500   -1.2990    0.0000 C   0  0  0  0  0  0  0  0  0  0  0  0
    3.7500   -1.2990    0.0000 C   0  0  0  0  0  0  0  0  0  0  0  0
  1  2  3  0
  2  3  1  0
  3  4  2  0
  4  5  1  0
  5  6  2  0
  6  7  1  0
  7  8  1  0
  8  9  1  0
  9 10  2  0
 10 11  1  0
 11 12  2  0
 12 13  1  0
 13 14  2  0
 14 15  1  0
 15 16  1  0
 16 17  1  0
 17 18  1  0
 18 19  1  0
 19 20  1  0
 15 21  2  0
 21 22  1  0
 22 23  1  0
 23 24  1  0
 24 25  1  0
 25 26  1  0
 21 27  1  0
 27 28  2  0
  7 29  2  0
 29  3  1  0
 28  9  1  0
 28 13  1  0
M  END
>  <assay_description>  (18) 
Inhibition of human liver OATP1B1 expressed in HEK293 Flp-In cells assessed as reduction in E17-betaG uptake by scintillation counting

>  <molecule_pref_name>  (18) 
ERLOTINIB

>  <canonical_smiles>  (18) 
C#Cc1cccc(Nc2ncnc3cc(OCCOC)c(OCCOC)cc23)c1

>  <pchembl_value>  (18) 
4.68

>  <standard_type>  (18) 
Ki

>  <standard_relation>  (18) 
=

>  <standard_value>  (18) 
21000.0

>  <standard_units>  (18) 
nM

>  <target_pref_name>  (18) 
Solute carrier organic anion transporter family member 1B1

>  <target_organism>  (18) 
Homo sapiens

$$$$
CHEMBL160
     RDKit          2D

 85 85  0  0  0  0  0  0  0  0999 V2000
   12.3901   -5.1962    0.0000 C   0  0  0  0  0  0  0  0  0  0  0  0
   11.6401   -3.8971    0.0000 C   0  0  0  0  0  0  0  0  0  0  0  0
   10.1401   -3.8971    0.0000 C   0  0  0  0  0  0  0  0  0  0  0  0
    9.3901   -2.5981    0.0000 C   0  0  0  0  0  0  0  0  0  0  0  0
   10.1401   -1.2990    0.0000 C   0  0  0  0  0  0  0  0  0  0  0  0
   11.6401   -1.2990    0.0000 C   0  0  0  0  0  0  0  0  0  0  0  0
    9.3901    0.0000    0.0000 C   0  0  0  0  0  0  0  0  0  0  0  0
   10.1401    1.2990    0.0000 O   0  0  0  0  0  0  0  0  0  0  0  0
    7.8901    0.0000    0.0000 C   0  0  0  0  0  0  0  0  0  0  0  0
    7.7475    1.4932    0.0000 C   0  0  0  0  0  0  0  0  0  0  0  0
    9.2204    1.7771    0.0000 O   0  0  0  0  0  0  0  0  0  0  0  0
    7.3249    2.9324    0.0000 N   0  0  0  0  0  0  0  0  0  0  0  0
    6.6376    4.2657    0.0000 C   0  0  0  0  0  0  0  0  0  0  0  0
    7.8994    5.0767    0.0000 C   0  0  0  0  0  0  0  0  0  0  0  0
    9.2327    4.3893    0.0000 C   0  0  0  0  0  0  0  0  0  0  0  0
    5.7103    5.4448    0.0000 C   0  0  0  0  0  0  0  0  0  0  0  0
    6.7959    6.4799    0.0000 O   0  0  0  0  0  0  0  0  0  0  0  0
    4.5767    6.4271    0.0000 N   0  0  0  0  0  0  0  0  0  0  0  0
    5.4468    7.6489    0.0000 C   0  0  0  0  0  0  0  0  0  0  0  0
    3.2777    7.1771    0.0000 C   0  0  0  0  0  0  0  0  0  0  0  0
    1.8602    7.6677    0.0000 C   0  0  0  0  0  0  0  0  0  0  0  0
    2.2138    9.1254    0.0000 O   0  0  0  0  0  0  0  0  0  0  0  0
    0.3754    7.8811    0.0000 N   0  0  0  0  0  0  0  0  0  0  0  0
    0.4468    9.3794    0.0000 C   0  0  0  0  0  0  0  0  0  0  0  0
   -1.1229    7.8098    0.0000 C   0  0  0  0  0  0  0  0  0  0  0  0
   -1.3363    9.2945    0.0000 C   0  0  0  0  0  0  0  0  0  0  0  0
   -0.1573   10.2217    0.0000 C   0  0  0  0  0  0  0  0  0  0  0  0
   -0.3707   11.7065    0.0000 C   0  0  0  0  0  0  0  0  0  0  0  0
    1.2353    9.6642    0.0000 C   0  0  0  0  0  0  0  0  0  0  0  0
   -2.5806    7.4561    0.0000 C   0  0  0  0  0  0  0  0  0  0  0  0
   -3.0712    8.8736    0.0000 O   0  0  0  0  0  0  0  0  0  0  0  0
   -3.9450    6.8330    0.0000 N   0  0  0  0  0  0  0  0  0  0  0  0
   -5.1669    5.9629    0.0000 C   0  0  0  0  0  0  0  0  0  0  0  0
   -6.1492    7.0966    0.0000 C   0  0  0  0  0  0  0  0  0  0  0  0
   -5.6586    8.5141    0.0000 C   0  0  0  0  0  0  0  0  0  0  0  0
   -7.6221    6.8127    0.0000 C   0  0  0  0  0  0  0  0  0  0  0  0
   -6.2020    4.8773    0.0000 C   0  0  0  0  0  0  0  0  0  0  0  0
   -7.3811    5.8046    0.0000 O   0  0  0  0  0  0  0  0  0  0  0  0
   -7.0130    3.6154    0.0000 N   0  0  0  0  0  0  0  0  0  0  0  0
   -8.3462    4.3028    0.0000 C   0  0  0  0  0  0  0  0  0  0  0  0
   -7.5705    2.2229    0.0000 C   0  0  0  0  0  0  0  0  0  0  0  0
   -9.0097    2.6455    0.0000 C   0  0  0  0  0  0  0  0  0  0  0  0
   -9.3634    4.1032    0.0000 C   0  0  0  0  0  0  0  0  0  0  0  0
  -10.8026    4.5258    0.0000 C   0  0  0  0  0  0  0  0  0  0  0  0
   -8.2778    5.1383    0.0000 C   0  0  0  0  0  0  0  0  0  0  0  0
   -7.8544    0.7500    0.0000 C   0  0  0  0  0  0  0  0  0  0  0  0
   -9.3476    0.8926    0.0000 O   0  0  0  0  0  0  0  0  0  0  0  0
   -7.8544   -0.7500    0.0000 N   0  0  0  0  0  0  0  0  0  0  0  0
   -7.5705   -2.2229    0.0000 C   0  0  0  0  0  0  0  0  0  0  0  0
   -9.0097   -2.6455    0.0000 C   0  0  0  0  0  0  0  0  0  0  0  0
   -7.0130   -3.6154    0.0000 C   0  0  0  0  0  0  0  0  0  0  0  0
   -8.3462   -4.3028    0.0000 O   0  0  0  0  0  0  0  0  0  0  0  0
   -6.2020   -4.8773    0.0000 N   0  0  0  0  0  0  0  0  0  0  0  0
   -5.1669   -5.9629    0.0000 C   0  0  0  0  0  0  0  0  0  0  0  0
   -6.1492   -7.0966    0.0000 C   0  0  0  0  0  0  0  0  0  0  0  0
   -3.9450   -6.8330    0.0000 C   0  0  0  0  0  0  0  0  0  0  0  0
   -4.6950   -8.1320    0.0000 O   0  0  0  0  0  0  0  0  0  0  0  0
   -2.5806   -7.4561    0.0000 N   0  0  0  0  0  0  0  0  0  0  0  0
   -3.0712   -8.8736    0.0000 C   0  0  0  0  0  0  0  0  0  0  0  0
   -1.1229   -7.8098    0.0000 C   0  0  0  0  0  0  0  0  0  0  0  0
   -1.3363   -9.2945    0.0000 C   0  0  0  0  0  0  0  0  0  0  0  0
   -2.7289   -9.8520    0.0000 C   0  0  0  0  0  0  0  0  0  0  0  0
   -2.9424  -11.3367    0.0000 C   0  0  0  0  0  0  0  0  0  0  0  0
   -3.9080   -8.9248    0.0000 C   0  0  0  0  0  0  0  0  0  0  0  0
    0.3754   -7.8811    0.0000 C   0  0  0  0  0  0  0  0  0  0  0  0
    0.4468   -9.3794    0.0000 O   0  0  0  0  0  0  0  0  0  0  0  0
    1.8602   -7.6677    0.0000 N   0  0  0  0  0  0  0  0  0  0  0  0
    2.2138   -9.1254    0.0000 C   0  0  0  0  0  0  0  0  0  0  0  0
    3.2777   -7.1771    0.0000 C   0  0  0  0  0  0  0  0  0  0  0  0
    3.9008   -8.5415    0.0000 C   0  0  0  0  0  0  0  0  0  0  0  0
    3.0307   -9.7634    0.0000 C   0  0  0  0  0  0  0  0  0  0  0  0
    3.6538  -11.1278    0.0000 C   0  0  0  0  0  0  0  0  0  0  0  0
    1.5375   -9.6208    0.0000 C   0  0  0  0  0  0  0  0  0  0  0  0
    4.5767   -6.4271    0.0000 C   0  0  0  0  0  0  0  0  0  0  0  0
    5.4468   -7.6489    0.0000 O   0  0  0  0  0  0  0  0  0  0  0  0
    5.7103   -5.4448    0.0000 N   0  0  0  0  0  0  0  0  0  0  0  0
    6.7959   -6.4799    0.0000 C   0  0  0  0  0  0  0  0  0  0  0  0
    6.6376   -4.2657    0.0000 C   0  0  0  0  0  0  0  0  0  0  0  0
    7.8994   -5.0767    0.0000 C   0  0  0  0  0  0  0  0  0  0  0  0
    7.8281   -6.5750    0.0000 C   0  0  0  0  0  0  0  0  0  0  0  0
    9.2327   -4.3893    0.0000 C   0  0  0  0  0  0  0  0  0  0  0  0
    7.3249   -2.9324    0.0000 C   0  0  0  0  0  0  0  0  0  0  0  0
    8.7175   -3.4899    0.0000 O   0  0  0  0  0  0  0  0  0  0  0  0
    7.7475   -1.4932    0.0000 N   0  0  0  0  0  0  0  0  0  0  0  0
    9.2204   -1.7771    0.0000 C   0  0  0  0  0  0  0  0  0  0  0  0
  1  2  1  0
  2  3  2  0
  3  4  1  0
  4  5  1  0
  5  6  1  6
  5  7  1  0
  7  8  1  6
  7  9  1  0
  9 10  1  6
 10 11  2  0
 10 12  1  0
 12 13  1  0
 13 14  1  6
 14 15  1  0
 13 16  1  0
 16 17  2  0
 16 18  1  0
 18 19  1  0
 18 20  1  0
 20 21  1  0
 21 22  2  0
 21 23  1  0
 23 24  1  0
 23 25  1  0
 25 26  1  6
 26 27  1  0
 27 28  1  0
 27 29  1  0
 25 30  1  0
 30 31  2  0
 30 32  1  0
 32 33  1  0
 33 34  1  6
 34 35  1  0
 34 36  1  0
 33 37  1  0
 37 38  2  0
 37 39  1  0
 39 40  1  0
 39 41  1  0
 41 42  1  6
 42 43  1  0
 43 44  1  0
 43 45  1  0
 41 46  1  0
 46 47  2  0
 46 48  1  0
 48 49  1  0
 49 50  1  6
 49 51  1  0
 51 52  2  0
 51 53  1  0
 53 54  1  0
 54 55  1  1
 54 56  1  0
 56 57  2  0
 56 58  1  0
 58 59  1  0
 58 60  1  0
 60 61  1  6
 61 62  1  0
 62 63  1  0
 62 64  1  0
 60 65  1  0
 65 66  2  0
 65 67  1  0
 67 68  1  0
 67 69  1  0
 69 70  1  6
 70 71  1  0
 71 72  1  0
 71 73  1  0
 69 74  1  0
 74 75  2  0
 74 76  1  0
 76 77  1  0
 76 78  1  0
 78 79  1  6
 79 80  1  0
 79 81  1  0
 78 82  1  0
 82 83  2  0
 82 84  1  0
 84 85  1  0
 84  9  1  0
M  END
>  <assay_description>  (19) 
Inhibition of human liver OATP1B1 expressed in HEK293 Flp-In cells assessed as reduction in E17-betaG uptake by scintillation counting

>  <molecule_pref_name>  (19) 
CYCLOSPORINE

>  <canonical_smiles>  (19) 
C/C=C/C[C@@H](C)[C@@H](O)[C@H]1C(=O)N[C@@H](CC)C(=O)N(C)CC(=O)N(C)[C@@H](CC(C)C)C(=O)N[C@@H](C(C)C)C(=O)N(C)[C@@H](CC(C)C)C(=O)N[C@@H](C)C(=O)N[C@H](C)C(=O)N(C)[C@@H](CC(C)C)C(=O)N(C)[C@@H](CC(C)C)C(=O)N(C)[C@@H](C(C)C)C(=O)N1C

>  <pchembl_value>  (19) 
5.85

>  <standard_type>  (19) 
IC50

>  <standard_relation>  (19) 
=

>  <standard_value>  (19) 
1400.0

>  <standard_units>  (19) 
nM

>  <target_pref_name>  (19) 
Solute carrier organic anion transporter family member 1B1

>  <target_organism>  (19) 
Homo sapiens

$$$$
CHEMBL160
     RDKit          2D

 85 85  0  0  0  0  0  0  0  0999 V2000
   12.3901   -5.1962    0.0000 C   0  0  0  0  0  0  0  0  0  0  0  0
   11.6401   -3.8971    0.0000 C   0  0  0  0  0  0  0  0  0  0  0  0
   10.1401   -3.8971    0.0000 C   0  0  0  0  0  0  0  0  0  0  0  0
    9.3901   -2.5981    0.0000 C   0  0  0  0  0  0  0  0  0  0  0  0
   10.1401   -1.2990    0.0000 C   0  0  0  0  0  0  0  0  0  0  0  0
   11.6401   -1.2990    0.0000 C   0  0  0  0  0  0  0  0  0  0  0  0
    9.3901    0.0000    0.0000 C   0  0  0  0  0  0  0  0  0  0  0  0
   10.1401    1.2990    0.0000 O   0  0  0  0  0  0  0  0  0  0  0  0
    7.8901    0.0000    0.0000 C   0  0  0  0  0  0  0  0  0  0  0  0
    7.7475    1.4932    0.0000 C   0  0  0  0  0  0  0  0  0  0  0  0
    9.2204    1.7771    0.0000 O   0  0  0  0  0  0  0  0  0  0  0  0
    7.3249    2.9324    0.0000 N   0  0  0  0  0  0  0  0  0  0  0  0
    6.6376    4.2657    0.0000 C   0  0  0  0  0  0  0  0  0  0  0  0
    7.8994    5.0767    0.0000 C   0  0  0  0  0  0  0  0  0  0  0  0
    9.2327    4.3893    0.0000 C   0  0  0  0  0  0  0  0  0  0  0  0
    5.7103    5.4448    0.0000 C   0  0  0  0  0  0  0  0  0  0  0  0
    6.7959    6.4799    0.0000 O   0  0  0  0  0  0  0  0  0  0  0  0
    4.5767    6.4271    0.0000 N   0  0  0  0  0  0  0  0  0  0  0  0
    5.4468    7.6489    0.0000 C   0  0  0  0  0  0  0  0  0  0  0  0
    3.2777    7.1771    0.0000 C   0  0  0  0  0  0  0  0  0  0  0  0
    1.8602    7.6677    0.0000 C   0  0  0  0  0  0  0  0  0  0  0  0
    2.2138    9.1254    0.0000 O   0  0  0  0  0  0  0  0  0  0  0  0
    0.3754    7.8811    0.0000 N   0  0  0  0  0  0  0  0  0  0  0  0
    0.4468    9.3794    0.0000 C   0  0  0  0  0  0  0  0  0  0  0  0
   -1.1229    7.8098    0.0000 C   0  0  0  0  0  0  0  0  0  0  0  0
   -1.3363    9.2945    0.0000 C   0  0  0  0  0  0  0  0  0  0  0  0
   -0.1573   10.2217    0.0000 C   0  0  0  0  0  0  0  0  0  0  0  0
   -0.3707   11.7065    0.0000 C   0  0  0  0  0  0  0  0  0  0  0  0
    1.2353    9.6642    0.0000 C   0  0  0  0  0  0  0  0  0  0  0  0
   -2.5806    7.4561    0.0000 C   0  0  0  0  0  0  0  0  0  0  0  0
   -3.0712    8.8736    0.0000 O   0  0  0  0  0  0  0  0  0  0  0  0
   -3.9450    6.8330    0.0000 N   0  0  0  0  0  0  0  0  0  0  0  0
   -5.1669    5.9629    0.0000 C   0  0  0  0  0  0  0  0  0  0  0  0
   -6.1492    7.0966    0.0000 C   0  0  0  0  0  0  0  0  0  0  0  0
   -5.6586    8.5141    0.0000 C   0  0  0  0  0  0  0  0  0  0  0  0
   -7.6221    6.8127    0.0000 C   0  0  0  0  0  0  0  0  0  0  0  0
   -6.2020    4.8773    0.0000 C   0  0  0  0  0  0  0  0  0  0  0  0
   -7.3811    5.8046    0.0000 O   0  0  0  0  0  0  0  0  0  0  0  0
   -7.0130    3.6154    0.0000 N   0  0  0  0  0  0  0  0  0  0  0  0
   -8.3462    4.3028    0.0000 C   0  0  0  0  0  0  0  0  0  0  0  0
   -7.5705    2.2229    0.0000 C   0  0  0  0  0  0  0  0  0  0  0  0
   -9.0097    2.6455    0.0000 C   0  0  0  0  0  0  0  0  0  0  0  0
   -9.3634    4.1032    0.0000 C   0  0  0  0  0  0  0  0  0  0  0  0
  -10.8026    4.5258    0.0000 C   0  0  0  0  0  0  0  0  0  0  0  0
   -8.2778    5.1383    0.0000 C   0  0  0  0  0  0  0  0  0  0  0  0
   -7.8544    0.7500    0.0000 C   0  0  0  0  0  0  0  0  0  0  0  0
   -9.3476    0.8926    0.0000 O   0  0  0  0  0  0  0  0  0  0  0  0
   -7.8544   -0.7500    0.0000 N   0  0  0  0  0  0  0  0  0  0  0  0
   -7.5705   -2.2229    0.0000 C   0  0  0  0  0  0  0  0  0  0  0  0
   -9.0097   -2.6455    0.0000 C   0  0  0  0  0  0  0  0  0  0  0  0
   -7.0130   -3.6154    0.0000 C   0  0  0  0  0  0  0  0  0  0  0  0
   -8.3462   -4.3028    0.0000 O   0  0  0  0  0  0  0  0  0  0  0  0
   -6.2020   -4.8773    0.0000 N   0  0  0  0  0  0  0  0  0  0  0  0
   -5.1669   -5.9629    0.0000 C   0  0  0  0  0  0  0  0  0  0  0  0
   -6.1492   -7.0966    0.0000 C   0  0  0  0  0  0  0  0  0  0  0  0
   -3.9450   -6.8330    0.0000 C   0  0  0  0  0  0  0  0  0  0  0  0
   -4.6950   -8.1320    0.0000 O   0  0  0  0  0  0  0  0  0  0  0  0
   -2.5806   -7.4561    0.0000 N   0  0  0  0  0  0  0  0  0  0  0  0
   -3.0712   -8.8736    0.0000 C   0  0  0  0  0  0  0  0  0  0  0  0
   -1.1229   -7.8098    0.0000 C   0  0  0  0  0  0  0  0  0  0  0  0
   -1.3363   -9.2945    0.0000 C   0  0  0  0  0  0  0  0  0  0  0  0
   -2.7289   -9.8520    0.0000 C   0  0  0  0  0  0  0  0  0  0  0  0
   -2.9424  -11.3367    0.0000 C   0  0  0  0  0  0  0  0  0  0  0  0
   -3.9080   -8.9248    0.0000 C   0  0  0  0  0  0  0  0  0  0  0  0
    0.3754   -7.8811    0.0000 C   0  0  0  0  0  0  0  0  0  0  0  0
    0.4468   -9.3794    0.0000 O   0  0  0  0  0  0  0  0  0  0  0  0
    1.8602   -7.6677    0.0000 N   0  0  0  0  0  0  0  0  0  0  0  0
    2.2138   -9.1254    0.0000 C   0  0  0  0  0  0  0  0  0  0  0  0
    3.2777   -7.1771    0.0000 C   0  0  0  0  0  0  0  0  0  0  0  0
    3.9008   -8.5415    0.0000 C   0  0  0  0  0  0  0  0  0  0  0  0
    3.0307   -9.7634    0.0000 C   0  0  0  0  0  0  0  0  0  0  0  0
    3.6538  -11.1278    0.0000 C   0  0  0  0  0  0  0  0  0  0  0  0
    1.5375   -9.6208    0.0000 C   0  0  0  0  0  0  0  0  0  0  0  0
    4.5767   -6.4271    0.0000 C   0  0  0  0  0  0  0  0  0  0  0  0
    5.4468   -7.6489    0.0000 O   0  0  0  0  0  0  0  0  0  0  0  0
    5.7103   -5.4448    0.0000 N   0  0  0  0  0  0  0  0  0  0  0  0
    6.7959   -6.4799    0.0000 C   0  0  0  0  0  0  0  0  0  0  0  0
    6.6376   -4.2657    0.0000 C   0  0  0  0  0  0  0  0  0  0  0  0
    7.8994   -5.0767    0.0000 C   0  0  0  0  0  0  0  0  0  0  0  0
    7.8281   -6.5750    0.0000 C   0  0  0  0  0  0  0  0  0  0  0  0
    9.2327   -4.3893    0.0000 C   0  0  0  0  0  0  0  0  0  0  0  0
    7.3249   -2.9324    0.0000 C   0  0  0  0  0  0  0  0  0  0  0  0
    8.7175   -3.4899    0.0000 O   0  0  0  0  0  0  0  0  0  0  0  0
    7.7475   -1.4932    0.0000 N   0  0  0  0  0  0  0  0  0  0  0  0
    9.2204   -1.7771    0.0000 C   0  0  0  0  0  0  0  0  0  0  0  0
  1  2  1  0
  2  3  2  0
  3  4  1  0
  4  5  1  0
  5  6  1  6
  5  7  1  0
  7  8  1  6
  7  9  1  0
  9 10  1  6
 10 11  2  0
 10 12  1  0
 12 13  1  0
 13 14  1  6
 14 15  1  0
 13 16  1  0
 16 17  2  0
 16 18  1  0
 18 19  1  0
 18 20  1  0
 20 21  1  0
 21 22  2  0
 21 23  1  0
 23 24  1  0
 23 25  1  0
 25 26  1  6
 26 27  1  0
 27 28  1  0
 27 29  1  0
 25 30  1  0
 30 31  2  0
 30 32  1  0
 32 33  1  0
 33 34  1  6
 34 35  1  0
 34 36  1  0
 33 37  1  0
 37 38  2  0
 37 39  1  0
 39 40  1  0
 39 41  1  0
 41 42  1  6
 42 43  1  0
 43 44  1  0
 43 45  1  0
 41 46  1  0
 46 47  2  0
 46 48  1  0
 48 49  1  0
 49 50  1  6
 49 51  1  0
 51 52  2  0
 51 53  1  0
 53 54  1  0
 54 55  1  1
 54 56  1  0
 56 57  2  0
 56 58  1  0
 58 59  1  0
 58 60  1  0
 60 61  1  6
 61 62  1  0
 62 63  1  0
 62 64  1  0
 60 65  1  0
 65 66  2  0
 65 67  1  0
 67 68  1  0
 67 69  1  0
 69 70  1  6
 70 71  1  0
 71 72  1  0
 71 73  1  0
 69 74  1  0
 74 75  2  0
 74 76  1  0
 76 77  1  0
 76 78  1  0
 78 79  1  6
 79 80  1  0
 79 81  1  0
 78 82  1  0
 82 83  2  0
 82 84  1  0
 84 85  1  0
 84  9  1  0
M  END
>  <assay_description>  (20) 
Inhibition of human liver OATP1B1 expressed in HEK293 Flp-In cells assessed as reduction in E17-betaG uptake by scintillation counting

>  <molecule_pref_name>  (20) 
CYCLOSPORINE

>  <canonical_smiles>  (20) 
C/C=C/C[C@@H](C)[C@@H](O)[C@H]1C(=O)N[C@@H](CC)C(=O)N(C)CC(=O)N(C)[C@@H](CC(C)C)C(=O)N[C@@H](C(C)C)C(=O)N(C)[C@@H](CC(C)C)C(=O)N[C@@H](C)C(=O)N[C@H](C)C(=O)N(C)[C@@H](CC(C)C)C(=O)N(C)[C@@H](CC(C)C)C(=O)N(C)[C@@H](C(C)C)C(=O)N1C

>  <pchembl_value>  (20) 
5.89

>  <standard_type>  (20) 
Ki

>  <standard_relation>  (20) 
=

>  <standard_value>  (20) 
1300.0

>  <standard_units>  (20) 
nM

>  <target_pref_name>  (20) 
Solute carrier organic anion transporter family member 1B1

>  <target_organism>  (20) 
Homo sapiens

$$$$
CHEMBL1163
     RDKit          2D

 51 53  0  0  0  0  0  0  0  0999 V2000
    1.5000    2.5981    0.0000 C   0  0  0  0  0  0  0  0  0  0  0  0
    0.7500    1.2990    0.0000 O   0  0  0  0  0  0  0  0  0  0  0  0
    1.5000   -0.0000    0.0000 C   0  0  0  0  0  0  0  0  0  0  0  0
    3.0000    0.0000    0.0000 O   0  0  0  0  0  0  0  0  0  0  0  0
    0.7500   -1.2990    0.0000 N   0  0  0  0  0  0  0  0  0  0  0  0
    1.5000   -2.5981    0.0000 C   0  0  0  0  0  0  0  0  0  0  0  0
    0.7500   -3.8971    0.0000 C   0  0  0  0  0  0  0  0  0  0  0  0
    1.5000   -5.1962    0.0000 O   0  0  0  0  0  0  0  0  0  0  0  0
   -0.7500   -3.8971    0.0000 N   0  0  0  0  0  0  0  0  0  0  0  0
   -1.5000   -5.1962    0.0000 C   0  0  0  0  0  0  0  0  0  0  0  0
   -3.0000   -5.1962    0.0000 C   0  0  0  0  0  0  0  0  0  0  0  0
   -3.7500   -3.8971    0.0000 C   0  0  0  0  0  0  0  0  0  0  0  0
   -5.2500   -3.8971    0.0000 C   0  0  0  0  0  0  0  0  0  0  0  0
   -6.0000   -2.5981    0.0000 C   0  0  0  0  0  0  0  0  0  0  0  0
   -5.2500   -1.2990    0.0000 C   0  0  0  0  0  0  0  0  0  0  0  0
   -3.7500   -1.2990    0.0000 C   0  0  0  0  0  0  0  0  0  0  0  0
   -3.0000   -2.5981    0.0000 C   0  0  0  0  0  0  0  0  0  0  0  0
   -0.7500   -6.4952    0.0000 C   0  0  0  0  0  0  0  0  0  0  0  0
   -1.5000   -7.7942    0.0000 O   0  0  0  0  0  0  0  0  0  0  0  0
    0.7500   -6.4952    0.0000 C   0  0  0  0  0  0  0  0  0  0  0  0
    1.5000   -7.7942    0.0000 N   0  0  0  0  0  0  0  0  0  0  0  0
    0.7500   -9.0933    0.0000 C   0  0  0  0  0  0  0  0  0  0  0  0
    1.5000  -10.3923    0.0000 C   0  0  0  0  0  0  0  0  0  0  0  0
    0.7500  -11.6913    0.0000 C   0  0  0  0  0  0  0  0  0  0  0  0
    1.5000  -12.9904    0.0000 C   0  0  0  0  0  0  0  0  0  0  0  0
    3.0000  -12.9904    0.0000 C   0  0  0  0  0  0  0  0  0  0  0  0
    3.7500  -14.2894    0.0000 C   0  0  0  0  0  0  0  0  0  0  0  0
    3.0000  -15.5885    0.0000 C   0  0  0  0  0  0  0  0  0  0  0  0
    3.7500  -16.8875    0.0000 C   0  0  0  0  0  0  0  0  0  0  0  0
    5.2500  -16.8875    0.0000 C   0  0  0  0  0  0  0  0  0  0  0  0
    6.0000  -15.5885    0.0000 C   0  0  0  0  0  0  0  0  0  0  0  0
    5.2500  -14.2894    0.0000 N   0  0  0  0  0  0  0  0  0  0  0  0
    3.7500  -11.6913    0.0000 C   0  0  0  0  0  0  0  0  0  0  0  0
    3.0000  -10.3923    0.0000 C   0  0  0  0  0  0  0  0  0  0  0  0
    3.0000   -7.7942    0.0000 N   0  0  0  0  0  0  0  0  0  0  0  0
    3.7500   -6.4952    0.0000 C   0  0  0  0  0  0  0  0  0  0  0  0
    3.0000   -5.1962    0.0000 O   0  0  0  0  0  0  0  0  0  0  0  0
    5.2500   -6.4952    0.0000 C   0  0  0  0  0  0  0  0  0  0  0  0
    6.0000   -7.7942    0.0000 N   0  0  0  0  0  0  0  0  0  0  0  0
    7.5000   -7.7942    0.0000 C   0  0  0  0  0  0  0  0  0  0  0  0
    8.2500   -6.4952    0.0000 O   0  0  0  0  0  0  0  0  0  0  0  0
    8.2500   -9.0933    0.0000 O   0  0  0  0  0  0  0  0  0  0  0  0
    9.7500   -9.0933    0.0000 C   0  0  0  0  0  0  0  0  0  0  0  0
    6.0000   -5.1962    0.0000 C   0  0  0  0  0  0  0  0  0  0  0  0
    7.2990   -5.9462    0.0000 C   0  0  0  0  0  0  0  0  0  0  0  0
    4.7010   -4.4462    0.0000 C   0  0  0  0  0  0  0  0  0  0  0  0
    6.7500   -3.8971    0.0000 C   0  0  0  0  0  0  0  0  0  0  0  0
    3.0000   -2.5981    0.0000 C   0  0  0  0  0  0  0  0  0  0  0  0
    3.0000   -1.0981    0.0000 C   0  0  0  0  0  0  0  0  0  0  0  0
    3.0000   -4.0981    0.0000 C   0  0  0  0  0  0  0  0  0  0  0  0
    4.5000   -2.5981    0.0000 C   0  0  0  0  0  0  0  0  0  0  0  0
  1  2  1  0
  2  3  1  0
  3  4  2  0
  3  5  1  0
  6  5  1  1
  6  7  1  0
  7  8  2  0
  7  9  1  0
  9 10  1  0
 10 11  1  6
 11 12  1  0
 12 13  2  0
 13 14  1  0
 14 15  2  0
 15 16  1  0
 16 17  2  0
 10 18  1  0
 18 19  1  6
 18 20  1  0
 20 21  1  0
 21 22  1  0
 22 23  1  0
 23 24  2  0
 24 25  1  0
 25 26  2  0
 26 27  1  0
 27 28  2  0
 28 29  1  0
 29 30  2  0
 30 31  1  0
 31 32  2  0
 26 33  1  0
 33 34  2  0
 21 35  1  0
 35 36  1  0
 36 37  2  0
 36 38  1  0
 38 39  1  6
 39 40  1  0
 40 41  2  0
 40 42  1  0
 42 43  1  0
 38 44  1  0
 44 45  1  0
 44 46  1  0
 44 47  1  0
  6 48  1  0
 48 49  1  0
 48 50  1  0
 48 51  1  0
 17 12  1  0
 34 23  1  0
 32 27  1  0
M  END
>  <assay_description>  (21) 
Inhibition of human liver OATP1B1 expressed in HEK293 Flp-In cells assessed as reduction in E17-betaG uptake by scintillation counting

>  <molecule_pref_name>  (21) 
ATAZANAVIR

>  <canonical_smiles>  (21) 
COC(=O)N[C@H](C(=O)N[C@@H](Cc1ccccc1)[C@@H](O)CN(Cc1ccc(-c2ccccn2)cc1)NC(=O)[C@@H](NC(=O)OC)C(C)(C)C)C(C)(C)C

>  <pchembl_value>  (21) 
5.89

>  <standard_type>  (21) 
Ki

>  <standard_relation>  (21) 
=

>  <standard_value>  (21) 
1300.0

>  <standard_units>  (21) 
nM

>  <target_pref_name>  (21) 
Solute carrier organic anion transporter family member 1B1

>  <target_organism>  (21) 
Homo sapiens

$$$$
CHEMBL1163
     RDKit          2D

 51 53  0  0  0  0  0  0  0  0999 V2000
    1.5000    2.5981    0.0000 C   0  0  0  0  0  0  0  0  0  0  0  0
    0.7500    1.2990    0.0000 O   0  0  0  0  0  0  0  0  0  0  0  0
    1.5000   -0.0000    0.0000 C   0  0  0  0  0  0  0  0  0  0  0  0
    3.0000    0.0000    0.0000 O   0  0  0  0  0  0  0  0  0  0  0  0
    0.7500   -1.2990    0.0000 N   0  0  0  0  0  0  0  0  0  0  0  0
    1.5000   -2.5981    0.0000 C   0  0  0  0  0  0  0  0  0  0  0  0
    0.7500   -3.8971    0.0000 C   0  0  0  0  0  0  0  0  0  0  0  0
    1.5000   -5.1962    0.0000 O   0  0  0  0  0  0  0  0  0  0  0  0
   -0.7500   -3.8971    0.0000 N   0  0  0  0  0  0  0  0  0  0  0  0
   -1.5000   -5.1962    0.0000 C   0  0  0  0  0  0  0  0  0  0  0  0
   -3.0000   -5.1962    0.0000 C   0  0  0  0  0  0  0  0  0  0  0  0
   -3.7500   -3.8971    0.0000 C   0  0  0  0  0  0  0  0  0  0  0  0
   -5.2500   -3.8971    0.0000 C   0  0  0  0  0  0  0  0  0  0  0  0
   -6.0000   -2.5981    0.0000 C   0  0  0  0  0  0  0  0  0  0  0  0
   -5.2500   -1.2990    0.0000 C   0  0  0  0  0  0  0  0  0  0  0  0
   -3.7500   -1.2990    0.0000 C   0  0  0  0  0  0  0  0  0  0  0  0
   -3.0000   -2.5981    0.0000 C   0  0  0  0  0  0  0  0  0  0  0  0
   -0.7500   -6.4952    0.0000 C   0  0  0  0  0  0  0  0  0  0  0  0
   -1.5000   -7.7942    0.0000 O   0  0  0  0  0  0  0  0  0  0  0  0
    0.7500   -6.4952    0.0000 C   0  0  0  0  0  0  0  0  0  0  0  0
    1.5000   -7.7942    0.0000 N   0  0  0  0  0  0  0  0  0  0  0  0
    0.7500   -9.0933    0.0000 C   0  0  0  0  0  0  0  0  0  0  0  0
    1.5000  -10.3923    0.0000 C   0  0  0  0  0  0  0  0  0  0  0  0
    0.7500  -11.6913    0.0000 C   0  0  0  0  0  0  0  0  0  0  0  0
    1.5000  -12.9904    0.0000 C   0  0  0  0  0  0  0  0  0  0  0  0
    3.0000  -12.9904    0.0000 C   0  0  0  0  0  0  0  0  0  0  0  0
    3.7500  -14.2894    0.0000 C   0  0  0  0  0  0  0  0  0  0  0  0
    3.0000  -15.5885    0.0000 C   0  0  0  0  0  0  0  0  0  0  0  0
    3.7500  -16.8875    0.0000 C   0  0  0  0  0  0  0  0  0  0  0  0
    5.2500  -16.8875    0.0000 C   0  0  0  0  0  0  0  0  0  0  0  0
    6.0000  -15.5885    0.0000 C   0  0  0  0  0  0  0  0  0  0  0  0
    5.2500  -14.2894    0.0000 N   0  0  0  0  0  0  0  0  0  0  0  0
    3.7500  -11.6913    0.0000 C   0  0  0  0  0  0  0  0  0  0  0  0
    3.0000  -10.3923    0.0000 C   0  0  0  0  0  0  0  0  0  0  0  0
    3.0000   -7.7942    0.0000 N   0  0  0  0  0  0  0  0  0  0  0  0
    3.7500   -6.4952    0.0000 C   0  0  0  0  0  0  0  0  0  0  0  0
    3.0000   -5.1962    0.0000 O   0  0  0  0  0  0  0  0  0  0  0  0
    5.2500   -6.4952    0.0000 C   0  0  0  0  0  0  0  0  0  0  0  0
    6.0000   -7.7942    0.0000 N   0  0  0  0  0  0  0  0  0  0  0  0
    7.5000   -7.7942    0.0000 C   0  0  0  0  0  0  0  0  0  0  0  0
    8.2500   -6.4952    0.0000 O   0  0  0  0  0  0  0  0  0  0  0  0
    8.2500   -9.0933    0.0000 O   0  0  0  0  0  0  0  0  0  0  0  0
    9.7500   -9.0933    0.0000 C   0  0  0  0  0  0  0  0  0  0  0  0
    6.0000   -5.1962    0.0000 C   0  0  0  0  0  0  0  0  0  0  0  0
    7.2990   -5.9462    0.0000 C   0  0  0  0  0  0  0  0  0  0  0  0
    4.7010   -4.4462    0.0000 C   0  0  0  0  0  0  0  0  0  0  0  0
    6.7500   -3.8971    0.0000 C   0  0  0  0  0  0  0  0  0  0  0  0
    3.0000   -2.5981    0.0000 C   0  0  0  0  0  0  0  0  0  0  0  0
    3.0000   -1.0981    0.0000 C   0  0  0  0  0  0  0  0  0  0  0  0
    3.0000   -4.0981    0.0000 C   0  0  0  0  0  0  0  0  0  0  0  0
    4.5000   -2.5981    0.0000 C   0  0  0  0  0  0  0  0  0  0  0  0
  1  2  1  0
  2  3  1  0
  3  4  2  0
  3  5  1  0
  6  5  1  1
  6  7  1  0
  7  8  2  0
  7  9  1  0
  9 10  1  0
 10 11  1  6
 11 12  1  0
 12 13  2  0
 13 14  1  0
 14 15  2  0
 15 16  1  0
 16 17  2  0
 10 18  1  0
 18 19  1  6
 18 20  1  0
 20 21  1  0
 21 22  1  0
 22 23  1  0
 23 24  2  0
 24 25  1  0
 25 26  2  0
 26 27  1  0
 27 28  2  0
 28 29  1  0
 29 30  2  0
 30 31  1  0
 31 32  2  0
 26 33  1  0
 33 34  2  0
 21 35  1  0
 35 36  1  0
 36 37  2  0
 36 38  1  0
 38 39  1  6
 39 40  1  0
 40 41  2  0
 40 42  1  0
 42 43  1  0
 38 44  1  0
 44 45  1  0
 44 46  1  0
 44 47  1  0
  6 48  1  0
 48 49  1  0
 48 50  1  0
 48 51  1  0
 17 12  1  0
 34 23  1  0
 32 27  1  0
M  END
>  <assay_description>  (22) 
Inhibition of human liver OATP1B1 expressed in HEK293 Flp-In cells assessed as reduction in E17-betaG uptake by scintillation counting

>  <molecule_pref_name>  (22) 
ATAZANAVIR

>  <canonical_smiles>  (22) 
COC(=O)N[C@H](C(=O)N[C@@H](Cc1ccccc1)[C@@H](O)CN(Cc1ccc(-c2ccccn2)cc1)NC(=O)[C@@H](NC(=O)OC)C(C)(C)C)C(C)(C)C

>  <pchembl_value>  (22) 
5.85

>  <standard_type>  (22) 
IC50

>  <standard_relation>  (22) 
=

>  <standard_value>  (22) 
1400.0

>  <standard_units>  (22) 
nM

>  <target_pref_name>  (22) 
Solute carrier organic anion transporter family member 1B1

>  <target_organism>  (22) 
Homo sapiens

$$$$
CHEMBL2018969
     RDKit          2D

 36 39  0  0  0  0  0  0  0  0999 V2000
    3.7500   -1.2990    0.0000 C   0  0  0  0  0  0  0  0  0  0  0  0
    3.0000    0.0000    0.0000 O   0  0  0  0  0  0  0  0  0  0  0  0
    1.5000    0.0000    0.0000 C   0  0  0  0  0  0  0  0  0  0  0  0
    0.7500   -1.2990    0.0000 C   0  0  0  0  0  0  0  0  0  0  0  0
   -0.7500   -1.2990    0.0000 C   0  0  0  0  0  0  0  0  0  0  0  0
   -1.5000    0.0000    0.0000 C   0  0  0  0  0  0  0  0  0  0  0  0
   -0.7500    1.2990    0.0000 C   0  0  0  0  0  0  0  0  0  0  0  0
    0.7500    1.2990    0.0000 C   0  0  0  0  0  0  0  0  0  0  0  0
    1.2135    2.7256    0.0000 C   0  0  0  0  0  0  0  0  0  0  0  0
    2.6401    3.1891    0.0000 N   0  0  0  0  0  0  0  0  0  0  0  0
    2.9520    4.6564    0.0000 S   0  0  0  0  0  0  0  0  0  0  0  0
    1.4848    4.9682    0.0000 O   0  0  0  0  0  0  0  0  0  0  0  0
    4.4192    4.3445    0.0000 O   0  0  0  0  0  0  0  0  0  0  0  0
    3.2638    6.1236    0.0000 C   0  0  0  0  0  0  0  0  0  0  0  0
    2.2601    7.2383    0.0000 C   0  0  0  0  0  0  0  0  0  0  0  0
    3.0101    8.5373    0.0000 C   0  0  0  0  0  0  0  0  0  0  0  0
    4.4774    8.2255    0.0000 C   0  0  0  0  0  0  0  0  0  0  0  0
    5.5921    9.2292    0.0000 Cl  0  0  0  0  0  0  0  0  0  0  0  0
    4.6342    6.7337    0.0000 S   0  0  0  0  0  0  0  0  0  0  0  0
   -0.0000    3.6073    0.0000 N   0  0  0  0  0  0  0  0  0  0  0  0
   -1.2135    2.7256    0.0000 N   0  0  0  0  0  0  0  0  0  0  0  0
   -2.6401    3.1891    0.0000 C   0  0  0  0  0  0  0  0  0  0  0  0
   -2.9520    4.6564    0.0000 C   0  0  0  0  0  0  0  0  0  0  0  0
   -1.8373    5.6601    0.0000 C   0  0  0  0  0  0  0  0  0  0  0  0
   -2.1491    7.1273    0.0000 C   0  0  0  0  0  0  0  0  0  0  0  0
   -3.5757    7.5908    0.0000 C   0  0  0  0  0  0  0  0  0  0  0  0
   -4.6904    6.5871    0.0000 C   0  0  0  0  0  0  0  0  0  0  0  0
   -6.1170    7.0506    0.0000 C   0  0  0  0  0  0  0  0  0  0  0  0
   -6.4289    8.5179    0.0000 N   0  0  0  0  0  0  0  0  0  0  0  0
   -7.8555    8.9814    0.0000 C   0  0  0  0  0  0  0  0  0  0  0  0
   -8.9702    7.9777    0.0000 O   0  0  0  0  0  0  0  0  0  0  0  0
   -8.1673   10.4486    0.0000 C   0  0  0  0  0  0  0  0  0  0  0  0
   -6.7001   10.7605    0.0000 C   0  0  0  0  0  0  0  0  0  0  0  0
   -9.6346   10.1367    0.0000 C   0  0  0  0  0  0  0  0  0  0  0  0
   -8.4792   11.9158    0.0000 O   0  0  0  0  0  0  0  0  0  0  0  0
   -4.3786    5.1199    0.0000 C   0  0  0  0  0  0  0  0  0  0  0  0
  1  2  1  0
  2  3  1  0
  3  4  2  0
  4  5  1  0
  5  6  2  0
  6  7  1  0
  7  8  2  0
  8  9  1  0
  9 10  1  0
 10 11  1  0
 11 12  2  0
 11 13  2  0
 11 14  1  0
 14 15  2  0
 15 16  1  0
 16 17  2  0
 17 18  1  0
 17 19  1  0
  9 20  2  0
 20 21  1  0
 21 22  1  0
 22 23  1  0
 23 24  2  0
 24 25  1  0
 25 26  2  0
 26 27  1  0
 27 28  1  0
 28 29  1  0
 29 30  1  0
 30 31  2  0
 30 32  1  0
 32 33  1  0
 32 34  1  0
 32 35  1  0
 27 36  2  0
  8  3  1  0
 19 14  1  0
 36 23  1  0
 21  7  1  0
M  END
>  <assay_description>  (23) 
Antagonist activity at OATP1B1 (unknown origin) by [35S]GTPgammaS binding assay

>  <molecule_pref_name>  (23) 
None

>  <canonical_smiles>  (23) 
COc1cccc2c1c(NS(=O)(=O)c1ccc(Cl)s1)nn2Cc1cccc(CNC(=O)C(C)(C)O)c1

>  <pchembl_value>  (23) 
6.40

>  <standard_type>  (23) 
IC50

>  <standard_relation>  (23) 
=

>  <standard_value>  (23) 
398.11

>  <standard_units>  (23) 
nM

>  <target_pref_name>  (23) 
Solute carrier organic anion transporter family member 1B1

>  <target_organism>  (23) 
Homo sapiens

$$$$
CHEMBL3344503
     RDKit          2D

 94 95  0  0  0  0  0  0  0  0999 V2000
   12.3901   -5.1962    0.0000 C   0  0  0  0  0  0  0  0  0  0  0  0
   11.6401   -3.8971    0.0000 C   0  0  0  0  0  0  0  0  0  0  0  0
   10.1401   -3.8971    0.0000 C   0  0  0  0  0  0  0  0  0  0  0  0
    9.3901   -2.5981    0.0000 C   0  0  0  0  0  0  0  0  0  0  0  0
   10.1401   -1.2990    0.0000 C   0  0  0  0  0  0  0  0  0  0  0  0
   11.6401   -1.2990    0.0000 C   0  0  0  0  0  0  0  0  0  0  0  0
    9.3901    0.0000    0.0000 C   0  0  0  0  0  0  0  0  0  0  0  0
   10.1401    1.2990    0.0000 O   0  0  0  0  0  0  0  0  0  0  0  0
    7.8901    0.0000    0.0000 C   0  0  0  0  0  0  0  0  0  0  0  0
    7.7475    1.4932    0.0000 C   0  0  0  0  0  0  0  0  0  0  0  0
    9.2204    1.7771    0.0000 O   0  0  0  0  0  0  0  0  0  0  0  0
    7.3249    2.9324    0.0000 N   0  0  0  0  0  0  0  0  0  0  0  0
    6.6376    4.2657    0.0000 C   0  0  0  0  0  0  0  0  0  0  0  0
    7.8994    5.0767    0.0000 C   0  0  0  0  0  0  0  0  0  0  0  0
    9.2327    4.3893    0.0000 C   0  0  0  0  0  0  0  0  0  0  0  0
    5.7103    5.4448    0.0000 C   0  0  0  0  0  0  0  0  0  0  0  0
    6.7959    6.4799    0.0000 O   0  0  0  0  0  0  0  0  0  0  0  0
    4.5767    6.4271    0.0000 N   0  0  0  0  0  0  0  0  0  0  0  0
    5.4468    7.6489    0.0000 C   0  0  0  0  0  0  0  0  0  0  0  0
    3.2777    7.1771    0.0000 C   0  0  0  0  0  0  0  0  0  0  0  0
    3.9008    8.5415    0.0000 C   0  0  0  0  0  0  0  0  0  0  0  0
    1.8602    7.6677    0.0000 C   0  0  0  0  0  0  0  0  0  0  0  0
    2.2138    9.1254    0.0000 O   0  0  0  0  0  0  0  0  0  0  0  0
    0.3754    7.8811    0.0000 N   0  0  0  0  0  0  0  0  0  0  0  0
    0.4468    9.3794    0.0000 C   0  0  0  0  0  0  0  0  0  0  0  0
   -1.1229    7.8098    0.0000 C   0  0  0  0  0  0  0  0  0  0  0  0
   -1.3363    9.2945    0.0000 C   0  0  0  0  0  0  0  0  0  0  0  0
   -0.1573   10.2217    0.0000 C   0  0  0  0  0  0  0  0  0  0  0  0
   -2.7289    9.8520    0.0000 C   0  0  0  0  0  0  0  0  0  0  0  0
   -2.9424   11.3367    0.0000 O   0  0  0  0  0  0  0  0  0  0  0  0
   -4.3349   11.8942    0.0000 C   0  0  0  0  0  0  0  0  0  0  0  0
   -4.5484   13.3790    0.0000 C   0  0  0  0  0  0  0  0  0  0  0  0
   -5.9409   13.9365    0.0000 N   0  0  0  0  0  0  0  0  0  0  0  0
   -6.1544   15.4212    0.0000 C   0  0  0  0  0  0  0  0  0  0  0  0
   -7.5470   15.9787    0.0000 C   0  0  0  0  0  0  0  0  0  0  0  0
   -8.7261   15.0514    0.0000 O   0  0  0  0  0  0  0  0  0  0  0  0
   -8.5126   13.5667    0.0000 C   0  0  0  0  0  0  0  0  0  0  0  0
   -7.1200   13.0092    0.0000 C   0  0  0  0  0  0  0  0  0  0  0  0
   -2.5806    7.4561    0.0000 C   0  0  0  0  0  0  0  0  0  0  0  0
   -3.0712    8.8736    0.0000 O   0  0  0  0  0  0  0  0  0  0  0  0
   -3.9450    6.8330    0.0000 N   0  0  0  0  0  0  0  0  0  0  0  0
   -5.1669    5.9629    0.0000 C   0  0  0  0  0  0  0  0  0  0  0  0
   -6.1492    7.0966    0.0000 C   0  0  0  0  0  0  0  0  0  0  0  0
   -5.6586    8.5141    0.0000 C   0  0  0  0  0  0  0  0  0  0  0  0
   -7.6221    6.8127    0.0000 C   0  0  0  0  0  0  0  0  0  0  0  0
   -6.2020    4.8773    0.0000 C   0  0  0  0  0  0  0  0  0  0  0  0
   -7.3811    5.8046    0.0000 O   0  0  0  0  0  0  0  0  0  0  0  0
   -7.0130    3.6154    0.0000 N   0  0  0  0  0  0  0  0  0  0  0  0
   -8.3462    4.3028    0.0000 C   0  0  0  0  0  0  0  0  0  0  0  0
   -7.5705    2.2229    0.0000 C   0  0  0  0  0  0  0  0  0  0  0  0
   -9.0097    2.6455    0.0000 C   0  0  0  0  0  0  0  0  0  0  0  0
   -9.3634    4.1032    0.0000 C   0  0  0  0  0  0  0  0  0  0  0  0
  -10.8026    4.5258    0.0000 C   0  0  0  0  0  0  0  0  0  0  0  0
   -8.2778    5.1383    0.0000 C   0  0  0  0  0  0  0  0  0  0  0  0
   -7.8544    0.7500    0.0000 C   0  0  0  0  0  0  0  0  0  0  0  0
   -9.3476    0.8926    0.0000 O   0  0  0  0  0  0  0  0  0  0  0  0
   -7.8544   -0.7500    0.0000 N   0  0  0  0  0  0  0  0  0  0  0  0
   -7.5705   -2.2229    0.0000 C   0  0  0  0  0  0  0  0  0  0  0  0
   -9.0097   -2.6455    0.0000 C   0  0  0  0  0  0  0  0  0  0  0  0
   -7.0130   -3.6154    0.0000 C   0  0  0  0  0  0  0  0  0  0  0  0
   -8.3462   -4.3028    0.0000 O   0  0  0  0  0  0  0  0  0  0  0  0
   -6.2020   -4.8773    0.0000 N   0  0  0  0  0  0  0  0  0  0  0  0
   -5.1669   -5.9629    0.0000 C   0  0  0  0  0  0  0  0  0  0  0  0
   -6.1492   -7.0966    0.0000 C   0  0  0  0  0  0  0  0  0  0  0  0
   -3.9450   -6.8330    0.0000 C   0  0  0  0  0  0  0  0  0  0  0  0
   -4.6950   -8.1320    0.0000 O   0  0  0  0  0  0  0  0  0  0  0  0
   -2.5806   -7.4561    0.0000 N   0  0  0  0  0  0  0  0  0  0  0  0
   -3.0712   -8.8736    0.0000 C   0  0  0  0  0  0  0  0  0  0  0  0
   -1.1229   -7.8098    0.0000 C   0  0  0  0  0  0  0  0  0  0  0  0
   -1.3363   -9.2945    0.0000 C   0  0  0  0  0  0  0  0  0  0  0  0
   -2.7289   -9.8520    0.0000 C   0  0  0  0  0  0  0  0  0  0  0  0
   -2.9424  -11.3367    0.0000 C   0  0  0  0  0  0  0  0  0  0  0  0
   -3.9080   -8.9248    0.0000 C   0  0  0  0  0  0  0  0  0  0  0  0
    0.3754   -7.8811    0.0000 C   0  0  0  0  0  0  0  0  0  0  0  0
    0.4468   -9.3794    0.0000 O   0  0  0  0  0  0  0  0  0  0  0  0
    1.8602   -7.6677    0.0000 N   0  0  0  0  0  0  0  0  0  0  0  0
    2.2138   -9.1254    0.0000 C   0  0  0  0  0  0  0  0  0  0  0  0
    3.2777   -7.1771    0.0000 C   0  0  0  0  0  0  0  0  0  0  0  0
    3.9008   -8.5415    0.0000 C   0  0  0  0  0  0  0  0  0  0  0  0
    3.0307   -9.7634    0.0000 C   0  0  0  0  0  0  0  0  0  0  0  0
    3.6538  -11.1278    0.0000 C   0  0  0  0  0  0  0  0  0  0  0  0
    1.5375   -9.6208    0.0000 C   0  0  0  0  0  0  0  0  0  0  0  0
    4.5767   -6.4271    0.0000 C   0  0  0  0  0  0  0  0  0  0  0  0
    5.4468   -7.6489    0.0000 O   0  0  0  0  0  0  0  0  0  0  0  0
    5.7103   -5.4448    0.0000 N   0  0  0  0  0  0  0  0  0  0  0  0
    6.7959   -6.4799    0.0000 C   0  0  0  0  0  0  0  0  0  0  0  0
    6.6376   -4.2657    0.0000 C   0  0  0  0  0  0  0  0  0  0  0  0
    7.8994   -5.0767    0.0000 C   0  0  0  0  0  0  0  0  0  0  0  0
    7.8281   -6.5750    0.0000 C   0  0  0  0  0  0  0  0  0  0  0  0
    9.2327   -4.3893    0.0000 C   0  0  0  0  0  0  0  0  0  0  0  0
    7.3249   -2.9324    0.0000 C   0  0  0  0  0  0  0  0  0  0  0  0
    8.7175   -3.4899    0.0000 O   0  0  0  0  0  0  0  0  0  0  0  0
    7.7475   -1.4932    0.0000 N   0  0  0  0  0  0  0  0  0  0  0  0
    9.2204   -1.7771    0.0000 C   0  0  0  0  0  0  0  0  0  0  0  0
  1  2  1  0
  2  3  2  0
  3  4  1  0
  4  5  1  0
  5  6  1  6
  5  7  1  0
  7  8  1  6
  7  9  1  0
  9 10  1  6
 10 11  2  0
 10 12  1  0
 12 13  1  0
 13 14  1  6
 14 15  1  0
 13 16  1  0
 16 17  2  0
 16 18  1  0
 18 19  1  0
 18 20  1  0
 20 21  1  1
 20 22  1  0
 22 23  2  0
 22 24  1  0
 24 25  1  0
 24 26  1  0
 26 27  1  0
 27 28  1  1
 27 29  1  0
 29 30  1  0
 30 31  1  0
 31 32  1  0
 32 33  1  0
 33 34  1  0
 34 35  1  0
 35 36  1  0
 36 37  1  0
 37 38  1  0
 26 39  1  6
 39 40  2  0
 39 41  1  0
 41 42  1  0
 42 43  1  6
 43 44  1  0
 43 45  1  0
 42 46  1  0
 46 47  2  0
 46 48  1  0
 48 49  1  0
 48 50  1  0
 50 51  1  6
 51 52  1  0
 52 53  1  0
 52 54  1  0
 50 55  1  0
 55 56  2  0
 55 57  1  0
 57 58  1  0
 58 59  1  6
 58 60  1  0
 60 61  2  0
 60 62  1  0
 62 63  1  0
 63 64  1  1
 63 65  1  0
 65 66  2  0
 65 67  1  0
 67 68  1  0
 67 69  1  0
 69 70  1  6
 70 71  1  0
 71 72  1  0
 71 73  1  0
 69 74  1  0
 74 75  2  0
 74 76  1  0
 76 77  1  0
 76 78  1  0
 78 79  1  6
 79 80  1  0
 80 81  1  0
 80 82  1  0
 78 83  1  0
 83 84  2  0
 83 85  1  0
 85 86  1  0
 85 87  1  0
 87 88  1  6
 88 89  1  0
 88 90  1  0
 87 91  1  0
 91 92  2  0
 91 93  1  0
 93 94  1  0
 93  9  1  0
 38 33  1  0
M  END
>  <assay_description>  (24) 
Inhibition of OATP1B1 (unknown origin) expressed in CHO cells using 8-fluorescein-cAMP substrate by fluorescent photometry

>  <molecule_pref_name>  (24) 
None

>  <canonical_smiles>  (24) 
C/C=C/C[C@@H](C)[C@@H](O)[C@H]1C(=O)N[C@@H](CC)C(=O)N(C)[C@H](C)C(=O)N(C)[C@@H]([C@H](C)COCCN2CCOCC2)C(=O)N[C@@H](C(C)C)C(=O)N(C)[C@@H](CC(C)C)C(=O)N[C@@H](C)C(=O)N[C@H](C)C(=O)N(C)[C@@H](CC(C)C)C(=O)N(C)[C@@H](CC(C)C)C(=O)N(C)[C@@H](C(C)C)C(=O)N1C

>  <pchembl_value>  (24) 
5.19

>  <standard_type>  (24) 
IC50

>  <standard_relation>  (24) 
=

>  <standard_value>  (24) 
6400.0

>  <standard_units>  (24) 
nM

>  <target_pref_name>  (24) 
Solute carrier organic anion transporter family member 1B1

>  <target_organism>  (24) 
Homo sapiens

$$$$
CHEMBL3344502
     RDKit          2D

 92 93  0  0  0  0  0  0  0  0999 V2000
   12.3901   -5.1962    0.0000 C   0  0  0  0  0  0  0  0  0  0  0  0
   11.6401   -3.8971    0.0000 C   0  0  0  0  0  0  0  0  0  0  0  0
   10.1401   -3.8971    0.0000 C   0  0  0  0  0  0  0  0  0  0  0  0
    9.3901   -2.5981    0.0000 C   0  0  0  0  0  0  0  0  0  0  0  0
   10.1401   -1.2990    0.0000 C   0  0  0  0  0  0  0  0  0  0  0  0
   11.6401   -1.2990    0.0000 C   0  0  0  0  0  0  0  0  0  0  0  0
    9.3901    0.0000    0.0000 C   0  0  0  0  0  0  0  0  0  0  0  0
   10.1401    1.2990    0.0000 O   0  0  0  0  0  0  0  0  0  0  0  0
    7.8901    0.0000    0.0000 C   0  0  0  0  0  0  0  0  0  0  0  0
    7.7475    1.4932    0.0000 C   0  0  0  0  0  0  0  0  0  0  0  0
    9.2204    1.7771    0.0000 O   0  0  0  0  0  0  0  0  0  0  0  0
    7.3249    2.9324    0.0000 N   0  0  0  0  0  0  0  0  0  0  0  0
    6.6376    4.2657    0.0000 C   0  0  0  0  0  0  0  0  0  0  0  0
    7.8994    5.0767    0.0000 C   0  0  0  0  0  0  0  0  0  0  0  0
    9.2327    4.3893    0.0000 C   0  0  0  0  0  0  0  0  0  0  0  0
    5.7103    5.4448    0.0000 C   0  0  0  0  0  0  0  0  0  0  0  0
    6.7959    6.4799    0.0000 O   0  0  0  0  0  0  0  0  0  0  0  0
    4.5767    6.4271    0.0000 N   0  0  0  0  0  0  0  0  0  0  0  0
    5.4468    7.6489    0.0000 C   0  0  0  0  0  0  0  0  0  0  0  0
    3.2777    7.1771    0.0000 C   0  0  0  0  0  0  0  0  0  0  0  0
    3.9008    8.5415    0.0000 C   0  0  0  0  0  0  0  0  0  0  0  0
    1.8602    7.6677    0.0000 C   0  0  0  0  0  0  0  0  0  0  0  0
    2.2138    9.1254    0.0000 O   0  0  0  0  0  0  0  0  0  0  0  0
    0.3754    7.8811    0.0000 N   0  0  0  0  0  0  0  0  0  0  0  0
    0.4468    9.3794    0.0000 C   0  0  0  0  0  0  0  0  0  0  0  0
   -1.1229    7.8098    0.0000 C   0  0  0  0  0  0  0  0  0  0  0  0
   -1.3363    9.2945    0.0000 C   0  0  0  0  0  0  0  0  0  0  0  0
   -0.1573   10.2217    0.0000 C   0  0  0  0  0  0  0  0  0  0  0  0
   -2.7289    9.8520    0.0000 C   0  0  0  0  0  0  0  0  0  0  0  0
   -2.9424   11.3367    0.0000 C   0  0  0  0  0  0  0  0  0  0  0  0
   -4.3349   11.8942    0.0000 N   0  0  0  0  0  0  0  0  0  0  0  0
   -4.5484   13.3790    0.0000 C   0  0  0  0  0  0  0  0  0  0  0  0
   -5.9409   13.9365    0.0000 C   0  0  0  0  0  0  0  0  0  0  0  0
   -7.1200   13.0092    0.0000 O   0  0  0  0  0  0  0  0  0  0  0  0
   -6.9066   11.5245    0.0000 C   0  0  0  0  0  0  0  0  0  0  0  0
   -5.5140   10.9670    0.0000 C   0  0  0  0  0  0  0  0  0  0  0  0
   -2.5806    7.4561    0.0000 C   0  0  0  0  0  0  0  0  0  0  0  0
   -3.0712    8.8736    0.0000 O   0  0  0  0  0  0  0  0  0  0  0  0
   -3.9450    6.8330    0.0000 N   0  0  0  0  0  0  0  0  0  0  0  0
   -5.1669    5.9629    0.0000 C   0  0  0  0  0  0  0  0  0  0  0  0
   -6.1492    7.0966    0.0000 C   0  0  0  0  0  0  0  0  0  0  0  0
   -5.6586    8.5141    0.0000 C   0  0  0  0  0  0  0  0  0  0  0  0
   -7.6221    6.8127    0.0000 C   0  0  0  0  0  0  0  0  0  0  0  0
   -6.2020    4.8773    0.0000 C   0  0  0  0  0  0  0  0  0  0  0  0
   -7.3811    5.8046    0.0000 O   0  0  0  0  0  0  0  0  0  0  0  0
   -7.0130    3.6154    0.0000 N   0  0  0  0  0  0  0  0  0  0  0  0
   -8.3462    4.3028    0.0000 C   0  0  0  0  0  0  0  0  0  0  0  0
   -7.5705    2.2229    0.0000 C   0  0  0  0  0  0  0  0  0  0  0  0
   -9.0097    2.6455    0.0000 C   0  0  0  0  0  0  0  0  0  0  0  0
   -9.3634    4.1032    0.0000 C   0  0  0  0  0  0  0  0  0  0  0  0
  -10.8026    4.5258    0.0000 C   0  0  0  0  0  0  0  0  0  0  0  0
   -8.2778    5.1383    0.0000 C   0  0  0  0  0  0  0  0  0  0  0  0
   -7.8544    0.7500    0.0000 C   0  0  0  0  0  0  0  0  0  0  0  0
   -9.3476    0.8926    0.0000 O   0  0  0  0  0  0  0  0  0  0  0  0
   -7.8544   -0.7500    0.0000 N   0  0  0  0  0  0  0  0  0  0  0  0
   -7.5705   -2.2229    0.0000 C   0  0  0  0  0  0  0  0  0  0  0  0
   -9.0097   -2.6455    0.0000 C   0  0  0  0  0  0  0  0  0  0  0  0
   -7.0130   -3.6154    0.0000 C   0  0  0  0  0  0  0  0  0  0  0  0
   -8.3462   -4.3028    0.0000 O   0  0  0  0  0  0  0  0  0  0  0  0
   -6.2020   -4.8773    0.0000 N   0  0  0  0  0  0  0  0  0  0  0  0
   -5.1669   -5.9629    0.0000 C   0  0  0  0  0  0  0  0  0  0  0  0
   -6.1492   -7.0966    0.0000 C   0  0  0  0  0  0  0  0  0  0  0  0
   -3.9450   -6.8330    0.0000 C   0  0  0  0  0  0  0  0  0  0  0  0
   -4.6950   -8.1320    0.0000 O   0  0  0  0  0  0  0  0  0  0  0  0
   -2.5806   -7.4561    0.0000 N   0  0  0  0  0  0  0  0  0  0  0  0
   -3.0712   -8.8736    0.0000 C   0  0  0  0  0  0  0  0  0  0  0  0
   -1.1229   -7.8098    0.0000 C   0  0  0  0  0  0  0  0  0  0  0  0
   -1.3363   -9.2945    0.0000 C   0  0  0  0  0  0  0  0  0  0  0  0
   -2.7289   -9.8520    0.0000 C   0  0  0  0  0  0  0  0  0  0  0  0
   -2.9424  -11.3367    0.0000 C   0  0  0  0  0  0  0  0  0  0  0  0
   -3.9080   -8.9248    0.0000 C   0  0  0  0  0  0  0  0  0  0  0  0
    0.3754   -7.8811    0.0000 C   0  0  0  0  0  0  0  0  0  0  0  0
    0.4468   -9.3794    0.0000 O   0  0  0  0  0  0  0  0  0  0  0  0
    1.8602   -7.6677    0.0000 N   0  0  0  0  0  0  0  0  0  0  0  0
    2.2138   -9.1254    0.0000 C   0  0  0  0  0  0  0  0  0  0  0  0
    3.2777   -7.1771    0.0000 C   0  0  0  0  0  0  0  0  0  0  0  0
    3.9008   -8.5415    0.0000 C   0  0  0  0  0  0  0  0  0  0  0  0
    3.0307   -9.7634    0.0000 C   0  0  0  0  0  0  0  0  0  0  0  0
    3.6538  -11.1278    0.0000 C   0  0  0  0  0  0  0  0  0  0  0  0
    1.5375   -9.6208    0.0000 C   0  0  0  0  0  0  0  0  0  0  0  0
    4.5767   -6.4271    0.0000 C   0  0  0  0  0  0  0  0  0  0  0  0
    5.4468   -7.6489    0.0000 O   0  0  0  0  0  0  0  0  0  0  0  0
    5.7103   -5.4448    0.0000 N   0  0  0  0  0  0  0  0  0  0  0  0
    6.7959   -6.4799    0.0000 C   0  0  0  0  0  0  0  0  0  0  0  0
    6.6376   -4.2657    0.0000 C   0  0  0  0  0  0  0  0  0  0  0  0
    7.8994   -5.0767    0.0000 C   0  0  0  0  0  0  0  0  0  0  0  0
    7.8281   -6.5750    0.0000 C   0  0  0  0  0  0  0  0  0  0  0  0
    9.2327   -4.3893    0.0000 C   0  0  0  0  0  0  0  0  0  0  0  0
    7.3249   -2.9324    0.0000 C   0  0  0  0  0  0  0  0  0  0  0  0
    8.7175   -3.4899    0.0000 O   0  0  0  0  0  0  0  0  0  0  0  0
    7.7475   -1.4932    0.0000 N   0  0  0  0  0  0  0  0  0  0  0  0
    9.2204   -1.7771    0.0000 C   0  0  0  0  0  0  0  0  0  0  0  0
  1  2  1  0
  2  3  2  0
  3  4  1  0
  4  5  1  0
  5  6  1  6
  5  7  1  0
  7  8  1  6
  7  9  1  0
  9 10  1  6
 10 11  2  0
 10 12  1  0
 12 13  1  0
 13 14  1  6
 14 15  1  0
 13 16  1  0
 16 17  2  0
 16 18  1  0
 18 19  1  0
 18 20  1  0
 20 21  1  1
 20 22  1  0
 22 23  2  0
 22 24  1  0
 24 25  1  0
 24 26  1  0
 26 27  1  0
 27 28  1  1
 27 29  1  0
 29 30  1  0
 30 31  1  0
 31 32  1  0
 32 33  1  0
 33 34  1  0
 34 35  1  0
 35 36  1  0
 26 37  1  6
 37 38  2  0
 37 39  1  0
 39 40  1  0
 40 41  1  6
 41 42  1  0
 41 43  1  0
 40 44  1  0
 44 45  2  0
 44 46  1  0
 46 47  1  0
 46 48  1  0
 48 49  1  6
 49 50  1  0
 50 51  1  0
 50 52  1  0
 48 53  1  0
 53 54  2  0
 53 55  1  0
 55 56  1  0
 56 57  1  6
 56 58  1  0
 58 59  2  0
 58 60  1  0
 60 61  1  0
 61 62  1  1
 61 63  1  0
 63 64  2  0
 63 65  1  0
 65 66  1  0
 65 67  1  0
 67 68  1  6
 68 69  1  0
 69 70  1  0
 69 71  1  0
 67 72  1  0
 72 73  2  0
 72 74  1  0
 74 75  1  0
 74 76  1  0
 76 77  1  6
 77 78  1  0
 78 79  1  0
 78 80  1  0
 76 81  1  0
 81 82  2  0
 81 83  1  0
 83 84  1  0
 83 85  1  0
 85 86  1  6
 86 87  1  0
 86 88  1  0
 85 89  1  0
 89 90  2  0
 89 91  1  0
 91 92  1  0
 91  9  1  0
 36 31  1  0
M  END
>  <assay_description>  (25) 
Inhibition of OATP1B1 (unknown origin) expressed in CHO cells using 8-fluorescein-cAMP substrate by fluorescent photometry

>  <molecule_pref_name>  (25) 
None

>  <canonical_smiles>  (25) 
C/C=C/C[C@@H](C)[C@@H](O)[C@H]1C(=O)N[C@@H](CC)C(=O)N(C)[C@H](C)C(=O)N(C)[C@@H]([C@H](C)CCN2CCOCC2)C(=O)N[C@@H](C(C)C)C(=O)N(C)[C@@H](CC(C)C)C(=O)N[C@@H](C)C(=O)N[C@H](C)C(=O)N(C)[C@@H](CC(C)C)C(=O)N(C)[C@@H](CC(C)C)C(=O)N(C)[C@@H](C(C)C)C(=O)N1C

>  <pchembl_value>  (25) 
5.41

>  <standard_type>  (25) 
IC50

>  <standard_relation>  (25) 
=

>  <standard_value>  (25) 
3900.0

>  <standard_units>  (25) 
nM

>  <target_pref_name>  (25) 
Solute carrier organic anion transporter family member 1B1

>  <target_organism>  (25) 
Homo sapiens

$$$$
CHEMBL3344501
     RDKit          2D

 95 96  0  0  0  0  0  0  0  0999 V2000
   12.3901   -5.1962    0.0000 C   0  0  0  0  0  0  0  0  0  0  0  0
   11.6401   -3.8971    0.0000 C   0  0  0  0  0  0  0  0  0  0  0  0
   10.1401   -3.8971    0.0000 C   0  0  0  0  0  0  0  0  0  0  0  0
    9.3901   -2.5981    0.0000 C   0  0  0  0  0  0  0  0  0  0  0  0
   10.1401   -1.2990    0.0000 C   0  0  0  0  0  0  0  0  0  0  0  0
   11.6401   -1.2990    0.0000 C   0  0  0  0  0  0  0  0  0  0  0  0
    9.3901    0.0000    0.0000 C   0  0  0  0  0  0  0  0  0  0  0  0
   10.1401    1.2990    0.0000 O   0  0  0  0  0  0  0  0  0  0  0  0
    7.8901    0.0000    0.0000 C   0  0  0  0  0  0  0  0  0  0  0  0
    7.7475    1.4932    0.0000 C   0  0  0  0  0  0  0  0  0  0  0  0
    9.2204    1.7771    0.0000 O   0  0  0  0  0  0  0  0  0  0  0  0
    7.3249    2.9324    0.0000 N   0  0  0  0  0  0  0  0  0  0  0  0
    6.6376    4.2657    0.0000 C   0  0  0  0  0  0  0  0  0  0  0  0
    7.8994    5.0767    0.0000 C   0  0  0  0  0  0  0  0  0  0  0  0
    9.2327    4.3893    0.0000 C   0  0  0  0  0  0  0  0  0  0  0  0
    5.7103    5.4448    0.0000 C   0  0  0  0  0  0  0  0  0  0  0  0
    6.7959    6.4799    0.0000 O   0  0  0  0  0  0  0  0  0  0  0  0
    4.5767    6.4271    0.0000 N   0  0  0  0  0  0  0  0  0  0  0  0
    5.4468    7.6489    0.0000 C   0  0  0  0  0  0  0  0  0  0  0  0
    3.2777    7.1771    0.0000 C   0  0  0  0  0  0  0  0  0  0  0  0
    3.9008    8.5415    0.0000 C   0  0  0  0  0  0  0  0  0  0  0  0
    1.8602    7.6677    0.0000 C   0  0  0  0  0  0  0  0  0  0  0  0
    2.2138    9.1254    0.0000 O   0  0  0  0  0  0  0  0  0  0  0  0
    0.3754    7.8811    0.0000 N   0  0  0  0  0  0  0  0  0  0  0  0
    0.4468    9.3794    0.0000 C   0  0  0  0  0  0  0  0  0  0  0  0
   -1.1229    7.8098    0.0000 C   0  0  0  0  0  0  0  0  0  0  0  0
   -1.3363    9.2945    0.0000 C   0  0  0  0  0  0  0  0  0  0  0  0
   -0.1573   10.2217    0.0000 C   0  0  0  0  0  0  0  0  0  0  0  0
   -2.7289    9.8520    0.0000 C   0  0  0  0  0  0  0  0  0  0  0  0
   -2.9424   11.3367    0.0000 N   0  0  0  0  0  0  0  0  0  0  0  0
   -1.7633   12.2640    0.0000 C   0  0  0  0  0  0  0  0  0  0  0  0
   -1.9768   13.7487    0.0000 C   0  0  0  0  0  0  0  0  0  0  0  0
   -3.3693   14.3062    0.0000 N   0  0  0  0  0  0  0  0  0  0  0  0
   -3.5828   15.7909    0.0000 C   0  0  0  0  0  0  0  0  0  0  0  0
   -2.4037   16.7182    0.0000 C   0  0  0  0  0  0  0  0  0  0  0  0
   -2.6172   18.2029    0.0000 O   0  0  0  0  0  0  0  0  0  0  0  0
   -1.4381   19.1301    0.0000 C   0  0  0  0  0  0  0  0  0  0  0  0
   -4.5484   13.3790    0.0000 C   0  0  0  0  0  0  0  0  0  0  0  0
   -4.3349   11.8942    0.0000 C   0  0  0  0  0  0  0  0  0  0  0  0
   -2.5806    7.4561    0.0000 C   0  0  0  0  0  0  0  0  0  0  0  0
   -3.0712    8.8736    0.0000 O   0  0  0  0  0  0  0  0  0  0  0  0
   -3.9450    6.8330    0.0000 N   0  0  0  0  0  0  0  0  0  0  0  0
   -5.1669    5.9629    0.0000 C   0  0  0  0  0  0  0  0  0  0  0  0
   -6.1492    7.0966    0.0000 C   0  0  0  0  0  0  0  0  0  0  0  0
   -5.6586    8.5141    0.0000 C   0  0  0  0  0  0  0  0  0  0  0  0
   -7.6221    6.8127    0.0000 C   0  0  0  0  0  0  0  0  0  0  0  0
   -6.2020    4.8773    0.0000 C   0  0  0  0  0  0  0  0  0  0  0  0
   -7.3811    5.8046    0.0000 O   0  0  0  0  0  0  0  0  0  0  0  0
   -7.0130    3.6154    0.0000 N   0  0  0  0  0  0  0  0  0  0  0  0
   -8.3462    4.3028    0.0000 C   0  0  0  0  0  0  0  0  0  0  0  0
   -7.5705    2.2229    0.0000 C   0  0  0  0  0  0  0  0  0  0  0  0
   -9.0097    2.6455    0.0000 C   0  0  0  0  0  0  0  0  0  0  0  0
   -9.3634    4.1032    0.0000 C   0  0  0  0  0  0  0  0  0  0  0  0
  -10.8026    4.5258    0.0000 C   0  0  0  0  0  0  0  0  0  0  0  0
   -8.2778    5.1383    0.0000 C   0  0  0  0  0  0  0  0  0  0  0  0
   -7.8544    0.7500    0.0000 C   0  0  0  0  0  0  0  0  0  0  0  0
   -9.3476    0.8926    0.0000 O   0  0  0  0  0  0  0  0  0  0  0  0
   -7.8544   -0.7500    0.0000 N   0  0  0  0  0  0  0  0  0  0  0  0
   -7.5705   -2.2229    0.0000 C   0  0  0  0  0  0  0  0  0  0  0  0
   -9.0097   -2.6455    0.0000 C   0  0  0  0  0  0  0  0  0  0  0  0
   -7.0130   -3.6154    0.0000 C   0  0  0  0  0  0  0  0  0  0  0  0
   -8.3462   -4.3028    0.0000 O   0  0  0  0  0  0  0  0  0  0  0  0
   -6.2020   -4.8773    0.0000 N   0  0  0  0  0  0  0  0  0  0  0  0
   -5.1669   -5.9629    0.0000 C   0  0  0  0  0  0  0  0  0  0  0  0
   -6.1492   -7.0966    0.0000 C   0  0  0  0  0  0  0  0  0  0  0  0
   -3.9450   -6.8330    0.0000 C   0  0  0  0  0  0  0  0  0  0  0  0
   -4.6950   -8.1320    0.0000 O   0  0  0  0  0  0  0  0  0  0  0  0
   -2.5806   -7.4561    0.0000 N   0  0  0  0  0  0  0  0  0  0  0  0
   -3.0712   -8.8736    0.0000 C   0  0  0  0  0  0  0  0  0  0  0  0
   -1.1229   -7.8098    0.0000 C   0  0  0  0  0  0  0  0  0  0  0  0
   -1.3363   -9.2945    0.0000 C   0  0  0  0  0  0  0  0  0  0  0  0
   -2.7289   -9.8520    0.0000 C   0  0  0  0  0  0  0  0  0  0  0  0
   -2.9424  -11.3367    0.0000 C   0  0  0  0  0  0  0  0  0  0  0  0
   -3.9080   -8.9248    0.0000 C   0  0  0  0  0  0  0  0  0  0  0  0
    0.3754   -7.8811    0.0000 C   0  0  0  0  0  0  0  0  0  0  0  0
    0.4468   -9.3794    0.0000 O   0  0  0  0  0  0  0  0  0  0  0  0
    1.8602   -7.6677    0.0000 N   0  0  0  0  0  0  0  0  0  0  0  0
    2.2138   -9.1254    0.0000 C   0  0  0  0  0  0  0  0  0  0  0  0
    3.2777   -7.1771    0.0000 C   0  0  0  0  0  0  0  0  0  0  0  0
    3.9008   -8.5415    0.0000 C   0  0  0  0  0  0  0  0  0  0  0  0
    3.0307   -9.7634    0.0000 C   0  0  0  0  0  0  0  0  0  0  0  0
    3.6538  -11.1278    0.0000 C   0  0  0  0  0  0  0  0  0  0  0  0
    1.5375   -9.6208    0.0000 C   0  0  0  0  0  0  0  0  0  0  0  0
    4.5767   -6.4271    0.0000 C   0  0  0  0  0  0  0  0  0  0  0  0
    5.4468   -7.6489    0.0000 O   0  0  0  0  0  0  0  0  0  0  0  0
    5.7103   -5.4448    0.0000 N   0  0  0  0  0  0  0  0  0  0  0  0
    6.7959   -6.4799    0.0000 C   0  0  0  0  0  0  0  0  0  0  0  0
    6.6376   -4.2657    0.0000 C   0  0  0  0  0  0  0  0  0  0  0  0
    7.8994   -5.0767    0.0000 C   0  0  0  0  0  0  0  0  0  0  0  0
    7.8281   -6.5750    0.0000 C   0  0  0  0  0  0  0  0  0  0  0  0
    9.2327   -4.3893    0.0000 C   0  0  0  0  0  0  0  0  0  0  0  0
    7.3249   -2.9324    0.0000 C   0  0  0  0  0  0  0  0  0  0  0  0
    8.7175   -3.4899    0.0000 O   0  0  0  0  0  0  0  0  0  0  0  0
    7.7475   -1.4932    0.0000 N   0  0  0  0  0  0  0  0  0  0  0  0
    9.2204   -1.7771    0.0000 C   0  0  0  0  0  0  0  0  0  0  0  0
  1  2  1  0
  2  3  2  0
  3  4  1  0
  4  5  1  0
  5  6  1  6
  5  7  1  0
  7  8  1  6
  7  9  1  0
  9 10  1  6
 10 11  2  0
 10 12  1  0
 12 13  1  0
 13 14  1  6
 14 15  1  0
 13 16  1  0
 16 17  2  0
 16 18  1  0
 18 19  1  0
 18 20  1  0
 20 21  1  1
 20 22  1  0
 22 23  2  0
 22 24  1  0
 24 25  1  0
 24 26  1  0
 26 27  1  0
 27 28  1  6
 27 29  1  0
 29 30  1  0
 30 31  1  0
 31 32  1  0
 32 33  1  0
 33 34  1  0
 34 35  1  0
 35 36  1  0
 36 37  1  0
 33 38  1  0
 38 39  1  0
 26 40  1  6
 40 41  2  0
 40 42  1  0
 42 43  1  0
 43 44  1  6
 44 45  1  0
 44 46  1  0
 43 47  1  0
 47 48  2  0
 47 49  1  0
 49 50  1  0
 49 51  1  0
 51 52  1  6
 52 53  1  0
 53 54  1  0
 53 55  1  0
 51 56  1  0
 56 57  2  0
 56 58  1  0
 58 59  1  0
 59 60  1  6
 59 61  1  0
 61 62  2  0
 61 63  1  0
 63 64  1  0
 64 65  1  1
 64 66  1  0
 66 67  2  0
 66 68  1  0
 68 69  1  0
 68 70  1  0
 70 71  1  6
 71 72  1  0
 72 73  1  0
 72 74  1  0
 70 75  1  0
 75 76  2  0
 75 77  1  0
 77 78  1  0
 77 79  1  0
 79 80  1  6
 80 81  1  0
 81 82  1  0
 81 83  1  0
 79 84  1  0
 84 85  2  0
 84 86  1  0
 86 87  1  0
 86 88  1  0
 88 89  1  6
 89 90  1  0
 89 91  1  0
 88 92  1  0
 92 93  2  0
 92 94  1  0
 94 95  1  0
 94  9  1  0
 39 30  1  0
M  END
>  <assay_description>  (26) 
Inhibition of OATP1B1 (unknown origin) expressed in CHO cells using 8-fluorescein-cAMP substrate by fluorescent photometry

>  <molecule_pref_name>  (26) 
None

>  <canonical_smiles>  (26) 
C/C=C/C[C@@H](C)[C@@H](O)[C@H]1C(=O)N[C@@H](CC)C(=O)N(C)[C@H](C)C(=O)N(C)[C@@H]([C@@H](C)CN2CCN(CCOC)CC2)C(=O)N[C@@H](C(C)C)C(=O)N(C)[C@@H](CC(C)C)C(=O)N[C@@H](C)C(=O)N[C@H](C)C(=O)N(C)[C@@H](CC(C)C)C(=O)N(C)[C@@H](CC(C)C)C(=O)N(C)[C@@H](C(C)C)C(=O)N1C

>  <pchembl_value>  (26) 
5.21

>  <standard_type>  (26) 
IC50

>  <standard_relation>  (26) 
=

>  <standard_value>  (26) 
6100.0

>  <standard_units>  (26) 
nM

>  <target_pref_name>  (26) 
Solute carrier organic anion transporter family member 1B1

>  <target_organism>  (26) 
Homo sapiens

$$$$
CHEMBL3344500
     RDKit          2D

 91 91  0  0  0  0  0  0  0  0999 V2000
   12.3901   -5.1962    0.0000 C   0  0  0  0  0  0  0  0  0  0  0  0
   11.6401   -3.8971    0.0000 C   0  0  0  0  0  0  0  0  0  0  0  0
   10.1401   -3.8971    0.0000 C   0  0  0  0  0  0  0  0  0  0  0  0
    9.3901   -2.5981    0.0000 C   0  0  0  0  0  0  0  0  0  0  0  0
   10.1401   -1.2990    0.0000 C   0  0  0  0  0  0  0  0  0  0  0  0
   11.6401   -1.2990    0.0000 C   0  0  0  0  0  0  0  0  0  0  0  0
    9.3901    0.0000    0.0000 C   0  0  0  0  0  0  0  0  0  0  0  0
   10.1401    1.2990    0.0000 O   0  0  0  0  0  0  0  0  0  0  0  0
    7.8901    0.0000    0.0000 C   0  0  0  0  0  0  0  0  0  0  0  0
    7.7475    1.4932    0.0000 C   0  0  0  0  0  0  0  0  0  0  0  0
    9.2204    1.7771    0.0000 O   0  0  0  0  0  0  0  0  0  0  0  0
    7.3249    2.9324    0.0000 N   0  0  0  0  0  0  0  0  0  0  0  0
    6.6376    4.2657    0.0000 C   0  0  0  0  0  0  0  0  0  0  0  0
    7.8994    5.0767    0.0000 C   0  0  0  0  0  0  0  0  0  0  0  0
    9.2327    4.3893    0.0000 C   0  0  0  0  0  0  0  0  0  0  0  0
    5.7103    5.4448    0.0000 C   0  0  0  0  0  0  0  0  0  0  0  0
    6.7959    6.4799    0.0000 O   0  0  0  0  0  0  0  0  0  0  0  0
    4.5767    6.4271    0.0000 N   0  0  0  0  0  0  0  0  0  0  0  0
    5.4468    7.6489    0.0000 C   0  0  0  0  0  0  0  0  0  0  0  0
    3.2777    7.1771    0.0000 C   0  0  0  0  0  0  0  0  0  0  0  0
    3.9008    8.5415    0.0000 C   0  0  0  0  0  0  0  0  0  0  0  0
    1.8602    7.6677    0.0000 C   0  0  0  0  0  0  0  0  0  0  0  0
    2.2138    9.1254    0.0000 O   0  0  0  0  0  0  0  0  0  0  0  0
    0.3754    7.8811    0.0000 N   0  0  0  0  0  0  0  0  0  0  0  0
    0.4468    9.3794    0.0000 C   0  0  0  0  0  0  0  0  0  0  0  0
   -1.1229    7.8098    0.0000 C   0  0  0  0  0  0  0  0  0  0  0  0
   -1.3363    9.2945    0.0000 C   0  0  0  0  0  0  0  0  0  0  0  0
   -0.1573   10.2217    0.0000 C   0  0  0  0  0  0  0  0  0  0  0  0
   -2.7289    9.8520    0.0000 C   0  0  0  0  0  0  0  0  0  0  0  0
   -2.9424   11.3367    0.0000 N   0  0  0  0  0  0  0  0  0  0  0  0
   -4.3349   11.8942    0.0000 C   0  0  0  0  0  0  0  0  0  0  0  0
   -1.7633   12.2640    0.0000 C   0  0  0  0  0  0  0  0  0  0  0  0
   -1.9768   13.7487    0.0000 C   0  0  0  0  0  0  0  0  0  0  0  0
   -0.7977   14.6759    0.0000 O   0  0  0  0  0  0  0  0  0  0  0  0
   -1.0112   16.1607    0.0000 C   0  0  0  0  0  0  0  0  0  0  0  0
   -2.5806    7.4561    0.0000 C   0  0  0  0  0  0  0  0  0  0  0  0
   -3.0712    8.8736    0.0000 O   0  0  0  0  0  0  0  0  0  0  0  0
   -3.9450    6.8330    0.0000 N   0  0  0  0  0  0  0  0  0  0  0  0
   -5.1669    5.9629    0.0000 C   0  0  0  0  0  0  0  0  0  0  0  0
   -6.1492    7.0966    0.0000 C   0  0  0  0  0  0  0  0  0  0  0  0
   -5.6586    8.5141    0.0000 C   0  0  0  0  0  0  0  0  0  0  0  0
   -7.6221    6.8127    0.0000 C   0  0  0  0  0  0  0  0  0  0  0  0
   -6.2020    4.8773    0.0000 C   0  0  0  0  0  0  0  0  0  0  0  0
   -7.3811    5.8046    0.0000 O   0  0  0  0  0  0  0  0  0  0  0  0
   -7.0130    3.6154    0.0000 N   0  0  0  0  0  0  0  0  0  0  0  0
   -8.3462    4.3028    0.0000 C   0  0  0  0  0  0  0  0  0  0  0  0
   -7.5705    2.2229    0.0000 C   0  0  0  0  0  0  0  0  0  0  0  0
   -9.0097    2.6455    0.0000 C   0  0  0  0  0  0  0  0  0  0  0  0
   -9.3634    4.1032    0.0000 C   0  0  0  0  0  0  0  0  0  0  0  0
  -10.8026    4.5258    0.0000 C   0  0  0  0  0  0  0  0  0  0  0  0
   -8.2778    5.1383    0.0000 C   0  0  0  0  0  0  0  0  0  0  0  0
   -7.8544    0.7500    0.0000 C   0  0  0  0  0  0  0  0  0  0  0  0
   -9.3476    0.8926    0.0000 O   0  0  0  0  0  0  0  0  0  0  0  0
   -7.8544   -0.7500    0.0000 N   0  0  0  0  0  0  0  0  0  0  0  0
   -7.5705   -2.2229    0.0000 C   0  0  0  0  0  0  0  0  0  0  0  0
   -9.0097   -2.6455    0.0000 C   0  0  0  0  0  0  0  0  0  0  0  0
   -7.0130   -3.6154    0.0000 C   0  0  0  0  0  0  0  0  0  0  0  0
   -8.3462   -4.3028    0.0000 O   0  0  0  0  0  0  0  0  0  0  0  0
   -6.2020   -4.8773    0.0000 N   0  0  0  0  0  0  0  0  0  0  0  0
   -5.1669   -5.9629    0.0000 C   0  0  0  0  0  0  0  0  0  0  0  0
   -6.1492   -7.0966    0.0000 C   0  0  0  0  0  0  0  0  0  0  0  0
   -3.9450   -6.8330    0.0000 C   0  0  0  0  0  0  0  0  0  0  0  0
   -4.6950   -8.1320    0.0000 O   0  0  0  0  0  0  0  0  0  0  0  0
   -2.5806   -7.4561    0.0000 N   0  0  0  0  0  0  0  0  0  0  0  0
   -3.0712   -8.8736    0.0000 C   0  0  0  0  0  0  0  0  0  0  0  0
   -1.1229   -7.8098    0.0000 C   0  0  0  0  0  0  0  0  0  0  0  0
   -1.3363   -9.2945    0.0000 C   0  0  0  0  0  0  0  0  0  0  0  0
   -2.7289   -9.8520    0.0000 C   0  0  0  0  0  0  0  0  0  0  0  0
   -2.9424  -11.3367    0.0000 C   0  0  0  0  0  0  0  0  0  0  0  0
   -3.9080   -8.9248    0.0000 C   0  0  0  0  0  0  0  0  0  0  0  0
    0.3754   -7.8811    0.0000 C   0  0  0  0  0  0  0  0  0  0  0  0
    0.4468   -9.3794    0.0000 O   0  0  0  0  0  0  0  0  0  0  0  0
    1.8602   -7.6677    0.0000 N   0  0  0  0  0  0  0  0  0  0  0  0
    2.2138   -9.1254    0.0000 C   0  0  0  0  0  0  0  0  0  0  0  0
    3.2777   -7.1771    0.0000 C   0  0  0  0  0  0  0  0  0  0  0  0
    3.9008   -8.5415    0.0000 C   0  0  0  0  0  0  0  0  0  0  0  0
    3.0307   -9.7634    0.0000 C   0  0  0  0  0  0  0  0  0  0  0  0
    3.6538  -11.1278    0.0000 C   0  0  0  0  0  0  0  0  0  0  0  0
    1.5375   -9.6208    0.0000 C   0  0  0  0  0  0  0  0  0  0  0  0
    4.5767   -6.4271    0.0000 C   0  0  0  0  0  0  0  0  0  0  0  0
    5.4468   -7.6489    0.0000 O   0  0  0  0  0  0  0  0  0  0  0  0
    5.7103   -5.4448    0.0000 N   0  0  0  0  0  0  0  0  0  0  0  0
    6.7959   -6.4799    0.0000 C   0  0  0  0  0  0  0  0  0  0  0  0
    6.6376   -4.2657    0.0000 C   0  0  0  0  0  0  0  0  0  0  0  0
    7.8994   -5.0767    0.0000 C   0  0  0  0  0  0  0  0  0  0  0  0
    7.8281   -6.5750    0.0000 C   0  0  0  0  0  0  0  0  0  0  0  0
    9.2327   -4.3893    0.0000 C   0  0  0  0  0  0  0  0  0  0  0  0
    7.3249   -2.9324    0.0000 C   0  0  0  0  0  0  0  0  0  0  0  0
    8.7175   -3.4899    0.0000 O   0  0  0  0  0  0  0  0  0  0  0  0
    7.7475   -1.4932    0.0000 N   0  0  0  0  0  0  0  0  0  0  0  0
    9.2204   -1.7771    0.0000 C   0  0  0  0  0  0  0  0  0  0  0  0
  1  2  1  0
  2  3  2  0
  3  4  1  0
  4  5  1  0
  5  6  1  6
  5  7  1  0
  7  8  1  6
  7  9  1  0
  9 10  1  6
 10 11  2  0
 10 12  1  0
 12 13  1  0
 13 14  1  6
 14 15  1  0
 13 16  1  0
 16 17  2  0
 16 18  1  0
 18 19  1  0
 18 20  1  0
 20 21  1  1
 20 22  1  0
 22 23  2  0
 22 24  1  0
 24 25  1  0
 24 26  1  0
 26 27  1  0
 27 28  1  1
 27 29  1  0
 29 30  1  0
 30 31  1  0
 30 32  1  0
 32 33  1  0
 33 34  1  0
 34 35  1  0
 26 36  1  6
 36 37  2  0
 36 38  1  0
 38 39  1  0
 39 40  1  6
 40 41  1  0
 40 42  1  0
 39 43  1  0
 43 44  2  0
 43 45  1  0
 45 46  1  0
 45 47  1  0
 47 48  1  6
 48 49  1  0
 49 50  1  0
 49 51  1  0
 47 52  1  0
 52 53  2  0
 52 54  1  0
 54 55  1  0
 55 56  1  6
 55 57  1  0
 57 58  2  0
 57 59  1  0
 59 60  1  0
 60 61  1  1
 60 62  1  0
 62 63  2  0
 62 64  1  0
 64 65  1  0
 64 66  1  0
 66 67  1  6
 67 68  1  0
 68 69  1  0
 68 70  1  0
 66 71  1  0
 71 72  2  0
 71 73  1  0
 73 74  1  0
 73 75  1  0
 75 76  1  6
 76 77  1  0
 77 78  1  0
 77 79  1  0
 75 80  1  0
 80 81  2  0
 80 82  1  0
 82 83  1  0
 82 84  1  0
 84 85  1  6
 85 86  1  0
 85 87  1  0
 84 88  1  0
 88 89  2  0
 88 90  1  0
 90 91  1  0
 90  9  1  0
M  END
>  <assay_description>  (27) 
Inhibition of OATP1B1 (unknown origin) expressed in CHO cells using 8-fluorescein-cAMP substrate by fluorescent photometry

>  <molecule_pref_name>  (27) 
None

>  <canonical_smiles>  (27) 
C/C=C/C[C@@H](C)[C@@H](O)[C@H]1C(=O)N[C@@H](CC)C(=O)N(C)[C@H](C)C(=O)N(C)[C@@H]([C@H](C)CN(C)CCOC)C(=O)N[C@@H](C(C)C)C(=O)N(C)[C@@H](CC(C)C)C(=O)N[C@@H](C)C(=O)N[C@H](C)C(=O)N(C)[C@@H](CC(C)C)C(=O)N(C)[C@@H](CC(C)C)C(=O)N(C)[C@@H](C(C)C)C(=O)N1C

>  <pchembl_value>  (27) 
5.70

>  <standard_type>  (27) 
IC50

>  <standard_relation>  (27) 
=

>  <standard_value>  (27) 
2000.0

>  <standard_units>  (27) 
nM

>  <target_pref_name>  (27) 
Solute carrier organic anion transporter family member 1B1

>  <target_organism>  (27) 
Homo sapiens

$$$$
CHEMBL3344499
     RDKit          2D

 93 94  0  0  0  0  0  0  0  0999 V2000
   12.3901   -5.1962    0.0000 C   0  0  0  0  0  0  0  0  0  0  0  0
   11.6401   -3.8971    0.0000 C   0  0  0  0  0  0  0  0  0  0  0  0
   10.1401   -3.8971    0.0000 C   0  0  0  0  0  0  0  0  0  0  0  0
    9.3901   -2.5981    0.0000 C   0  0  0  0  0  0  0  0  0  0  0  0
   10.1401   -1.2990    0.0000 C   0  0  0  0  0  0  0  0  0  0  0  0
   11.6401   -1.2990    0.0000 C   0  0  0  0  0  0  0  0  0  0  0  0
    9.3901    0.0000    0.0000 C   0  0  0  0  0  0  0  0  0  0  0  0
   10.1401    1.2990    0.0000 O   0  0  0  0  0  0  0  0  0  0  0  0
    7.8901    0.0000    0.0000 C   0  0  0  0  0  0  0  0  0  0  0  0
    7.7475    1.4932    0.0000 C   0  0  0  0  0  0  0  0  0  0  0  0
    9.2204    1.7771    0.0000 O   0  0  0  0  0  0  0  0  0  0  0  0
    7.3249    2.9324    0.0000 N   0  0  0  0  0  0  0  0  0  0  0  0
    6.6376    4.2657    0.0000 C   0  0  0  0  0  0  0  0  0  0  0  0
    7.8994    5.0767    0.0000 C   0  0  0  0  0  0  0  0  0  0  0  0
    9.2327    4.3893    0.0000 C   0  0  0  0  0  0  0  0  0  0  0  0
    5.7103    5.4448    0.0000 C   0  0  0  0  0  0  0  0  0  0  0  0
    6.7959    6.4799    0.0000 O   0  0  0  0  0  0  0  0  0  0  0  0
    4.5767    6.4271    0.0000 N   0  0  0  0  0  0  0  0  0  0  0  0
    5.4468    7.6489    0.0000 C   0  0  0  0  0  0  0  0  0  0  0  0
    3.2777    7.1771    0.0000 C   0  0  0  0  0  0  0  0  0  0  0  0
    3.9008    8.5415    0.0000 C   0  0  0  0  0  0  0  0  0  0  0  0
    1.8602    7.6677    0.0000 C   0  0  0  0  0  0  0  0  0  0  0  0
    2.2138    9.1254    0.0000 O   0  0  0  0  0  0  0  0  0  0  0  0
    0.3754    7.8811    0.0000 N   0  0  0  0  0  0  0  0  0  0  0  0
    0.4468    9.3794    0.0000 C   0  0  0  0  0  0  0  0  0  0  0  0
   -1.1229    7.8098    0.0000 C   0  0  0  0  0  0  0  0  0  0  0  0
   -1.3363    9.2945    0.0000 C   0  0  0  0  0  0  0  0  0  0  0  0
   -0.1573   10.2217    0.0000 C   0  0  0  0  0  0  0  0  0  0  0  0
   -2.7289    9.8520    0.0000 C   0  0  0  0  0  0  0  0  0  0  0  0
   -2.9424   11.3367    0.0000 N   0  0  0  0  0  0  0  0  0  0  0  0
   -1.7633   12.2640    0.0000 C   0  0  0  0  0  0  0  0  0  0  0  0
   -1.9768   13.7487    0.0000 C   0  0  0  0  0  0  0  0  0  0  0  0
   -3.3693   14.3062    0.0000 C   0  0  0  0  0  0  0  0  0  0  0  0
   -3.5828   15.7909    0.0000 C   0  0  0  0  0  0  0  0  0  0  0  0
   -3.7963   17.2757    0.0000 N   0  0  0  0  0  0  0  0  0  0  0  0
   -4.5484   13.3790    0.0000 C   0  0  0  0  0  0  0  0  0  0  0  0
   -4.3349   11.8942    0.0000 C   0  0  0  0  0  0  0  0  0  0  0  0
   -2.5806    7.4561    0.0000 C   0  0  0  0  0  0  0  0  0  0  0  0
   -3.0712    8.8736    0.0000 O   0  0  0  0  0  0  0  0  0  0  0  0
   -3.9450    6.8330    0.0000 N   0  0  0  0  0  0  0  0  0  0  0  0
   -5.1669    5.9629    0.0000 C   0  0  0  0  0  0  0  0  0  0  0  0
   -6.1492    7.0966    0.0000 C   0  0  0  0  0  0  0  0  0  0  0  0
   -5.6586    8.5141    0.0000 C   0  0  0  0  0  0  0  0  0  0  0  0
   -7.6221    6.8127    0.0000 C   0  0  0  0  0  0  0  0  0  0  0  0
   -6.2020    4.8773    0.0000 C   0  0  0  0  0  0  0  0  0  0  0  0
   -7.3811    5.8046    0.0000 O   0  0  0  0  0  0  0  0  0  0  0  0
   -7.0130    3.6154    0.0000 N   0  0  0  0  0  0  0  0  0  0  0  0
   -8.3462    4.3028    0.0000 C   0  0  0  0  0  0  0  0  0  0  0  0
   -7.5705    2.2229    0.0000 C   0  0  0  0  0  0  0  0  0  0  0  0
   -9.0097    2.6455    0.0000 C   0  0  0  0  0  0  0  0  0  0  0  0
   -9.3634    4.1032    0.0000 C   0  0  0  0  0  0  0  0  0  0  0  0
  -10.8026    4.5258    0.0000 C   0  0  0  0  0  0  0  0  0  0  0  0
   -8.2778    5.1383    0.0000 C   0  0  0  0  0  0  0  0  0  0  0  0
   -7.8544    0.7500    0.0000 C   0  0  0  0  0  0  0  0  0  0  0  0
   -9.3476    0.8926    0.0000 O   0  0  0  0  0  0  0  0  0  0  0  0
   -7.8544   -0.7500    0.0000 N   0  0  0  0  0  0  0  0  0  0  0  0
   -7.5705   -2.2229    0.0000 C   0  0  0  0  0  0  0  0  0  0  0  0
   -9.0097   -2.6455    0.0000 C   0  0  0  0  0  0  0  0  0  0  0  0
   -7.0130   -3.6154    0.0000 C   0  0  0  0  0  0  0  0  0  0  0  0
   -8.3462   -4.3028    0.0000 O   0  0  0  0  0  0  0  0  0  0  0  0
   -6.2020   -4.8773    0.0000 N   0  0  0  0  0  0  0  0  0  0  0  0
   -5.1669   -5.9629    0.0000 C   0  0  0  0  0  0  0  0  0  0  0  0
   -6.1492   -7.0966    0.0000 C   0  0  0  0  0  0  0  0  0  0  0  0
   -3.9450   -6.8330    0.0000 C   0  0  0  0  0  0  0  0  0  0  0  0
   -4.6950   -8.1320    0.0000 O   0  0  0  0  0  0  0  0  0  0  0  0
   -2.5806   -7.4561    0.0000 N   0  0  0  0  0  0  0  0  0  0  0  0
   -3.0712   -8.8736    0.0000 C   0  0  0  0  0  0  0  0  0  0  0  0
   -1.1229   -7.8098    0.0000 C   0  0  0  0  0  0  0  0  0  0  0  0
   -1.3363   -9.2945    0.0000 C   0  0  0  0  0  0  0  0  0  0  0  0
   -2.7289   -9.8520    0.0000 C   0  0  0  0  0  0  0  0  0  0  0  0
   -2.9424  -11.3367    0.0000 C   0  0  0  0  0  0  0  0  0  0  0  0
   -3.9080   -8.9248    0.0000 C   0  0  0  0  0  0  0  0  0  0  0  0
    0.3754   -7.8811    0.0000 C   0  0  0  0  0  0  0  0  0  0  0  0
    0.4468   -9.3794    0.0000 O   0  0  0  0  0  0  0  0  0  0  0  0
    1.8602   -7.6677    0.0000 N   0  0  0  0  0  0  0  0  0  0  0  0
    2.2138   -9.1254    0.0000 C   0  0  0  0  0  0  0  0  0  0  0  0
    3.2777   -7.1771    0.0000 C   0  0  0  0  0  0  0  0  0  0  0  0
    3.9008   -8.5415    0.0000 C   0  0  0  0  0  0  0  0  0  0  0  0
    3.0307   -9.7634    0.0000 C   0  0  0  0  0  0  0  0  0  0  0  0
    3.6538  -11.1278    0.0000 C   0  0  0  0  0  0  0  0  0  0  0  0
    1.5375   -9.6208    0.0000 C   0  0  0  0  0  0  0  0  0  0  0  0
    4.5767   -6.4271    0.0000 C   0  0  0  0  0  0  0  0  0  0  0  0
    5.4468   -7.6489    0.0000 O   0  0  0  0  0  0  0  0  0  0  0  0
    5.7103   -5.4448    0.0000 N   0  0  0  0  0  0  0  0  0  0  0  0
    6.7959   -6.4799    0.0000 C   0  0  0  0  0  0  0  0  0  0  0  0
    6.6376   -4.2657    0.0000 C   0  0  0  0  0  0  0  0  0  0  0  0
    7.8994   -5.0767    0.0000 C   0  0  0  0  0  0  0  0  0  0  0  0
    7.8281   -6.5750    0.0000 C   0  0  0  0  0  0  0  0  0  0  0  0
    9.2327   -4.3893    0.0000 C   0  0  0  0  0  0  0  0  0  0  0  0
    7.3249   -2.9324    0.0000 C   0  0  0  0  0  0  0  0  0  0  0  0
    8.7175   -3.4899    0.0000 O   0  0  0  0  0  0  0  0  0  0  0  0
    7.7475   -1.4932    0.0000 N   0  0  0  0  0  0  0  0  0  0  0  0
    9.2204   -1.7771    0.0000 C   0  0  0  0  0  0  0  0  0  0  0  0
  1  2  1  0
  2  3  2  0
  3  4  1  0
  4  5  1  0
  5  6  1  6
  5  7  1  0
  7  8  1  6
  7  9  1  0
  9 10  1  6
 10 11  2  0
 10 12  1  0
 12 13  1  0
 13 14  1  6
 14 15  1  0
 13 16  1  0
 16 17  2  0
 16 18  1  0
 18 19  1  0
 18 20  1  0
 20 21  1  1
 20 22  1  0
 22 23  2  0
 22 24  1  0
 24 25  1  0
 24 26  1  0
 26 27  1  0
 27 28  1  1
 27 29  1  0
 29 30  1  0
 30 31  1  0
 31 32  1  0
 32 33  1  0
 33 34  1  0
 34 35  3  0
 33 36  1  0
 36 37  1  0
 26 38  1  6
 38 39  2  0
 38 40  1  0
 40 41  1  0
 41 42  1  6
 42 43  1  0
 42 44  1  0
 41 45  1  0
 45 46  2  0
 45 47  1  0
 47 48  1  0
 47 49  1  0
 49 50  1  6
 50 51  1  0
 51 52  1  0
 51 53  1  0
 49 54  1  0
 54 55  2  0
 54 56  1  0
 56 57  1  0
 57 58  1  6
 57 59  1  0
 59 60  2  0
 59 61  1  0
 61 62  1  0
 62 63  1  1
 62 64  1  0
 64 65  2  0
 64 66  1  0
 66 67  1  0
 66 68  1  0
 68 69  1  6
 69 70  1  0
 70 71  1  0
 70 72  1  0
 68 73  1  0
 73 74  2  0
 73 75  1  0
 75 76  1  0
 75 77  1  0
 77 78  1  6
 78 79  1  0
 79 80  1  0
 79 81  1  0
 77 82  1  0
 82 83  2  0
 82 84  1  0
 84 85  1  0
 84 86  1  0
 86 87  1  6
 87 88  1  0
 87 89  1  0
 86 90  1  0
 90 91  2  0
 90 92  1  0
 92 93  1  0
 92  9  1  0
 37 30  1  0
M  END
>  <assay_description>  (28) 
Inhibition of OATP1B1 (unknown origin) expressed in CHO cells using 8-fluorescein-cAMP substrate by fluorescent photometry

>  <molecule_pref_name>  (28) 
None

>  <canonical_smiles>  (28) 
C/C=C/C[C@@H](C)[C@@H](O)[C@H]1C(=O)N[C@@H](CC)C(=O)N(C)[C@H](C)C(=O)N(C)[C@@H]([C@H](C)CN2CCC(C#N)CC2)C(=O)N[C@@H](C(C)C)C(=O)N(C)[C@@H](CC(C)C)C(=O)N[C@@H](C)C(=O)N[C@H](C)C(=O)N(C)[C@@H](CC(C)C)C(=O)N(C)[C@@H](CC(C)C)C(=O)N(C)[C@@H](C(C)C)C(=O)N1C

>  <pchembl_value>  (28) 
5.72

>  <standard_type>  (28) 
IC50

>  <standard_relation>  (28) 
=

>  <standard_value>  (28) 
1900.0

>  <standard_units>  (28) 
nM

>  <target_pref_name>  (28) 
Solute carrier organic anion transporter family member 1B1

>  <target_organism>  (28) 
Homo sapiens

$$$$
CHEMBL3344498
     RDKit          2D

 93 95  0  0  0  0  0  0  0  0999 V2000
   12.3901   -5.1962    0.0000 C   0  0  0  0  0  0  0  0  0  0  0  0
   11.6401   -3.8971    0.0000 C   0  0  0  0  0  0  0  0  0  0  0  0
   10.1401   -3.8971    0.0000 C   0  0  0  0  0  0  0  0  0  0  0  0
    9.3901   -2.5981    0.0000 C   0  0  0  0  0  0  0  0  0  0  0  0
   10.1401   -1.2990    0.0000 C   0  0  0  0  0  0  0  0  0  0  0  0
   11.6401   -1.2990    0.0000 C   0  0  0  0  0  0  0  0  0  0  0  0
    9.3901    0.0000    0.0000 C   0  0  0  0  0  0  0  0  0  0  0  0
   10.1401    1.2990    0.0000 O   0  0  0  0  0  0  0  0  0  0  0  0
    7.8901    0.0000    0.0000 C   0  0  0  0  0  0  0  0  0  0  0  0
    7.7475    1.4932    0.0000 C   0  0  0  0  0  0  0  0  0  0  0  0
    9.2204    1.7771    0.0000 O   0  0  0  0  0  0  0  0  0  0  0  0
    7.3249    2.9324    0.0000 N   0  0  0  0  0  0  0  0  0  0  0  0
    6.6376    4.2657    0.0000 C   0  0  0  0  0  0  0  0  0  0  0  0
    7.8994    5.0767    0.0000 C   0  0  0  0  0  0  0  0  0  0  0  0
    9.2327    4.3893    0.0000 C   0  0  0  0  0  0  0  0  0  0  0  0
    5.7103    5.4448    0.0000 C   0  0  0  0  0  0  0  0  0  0  0  0
    6.7959    6.4799    0.0000 O   0  0  0  0  0  0  0  0  0  0  0  0
    4.5767    6.4271    0.0000 N   0  0  0  0  0  0  0  0  0  0  0  0
    5.4468    7.6489    0.0000 C   0  0  0  0  0  0  0  0  0  0  0  0
    3.2777    7.1771    0.0000 C   0  0  0  0  0  0  0  0  0  0  0  0
    3.9008    8.5415    0.0000 C   0  0  0  0  0  0  0  0  0  0  0  0
    1.8602    7.6677    0.0000 C   0  0  0  0  0  0  0  0  0  0  0  0
    2.2138    9.1254    0.0000 O   0  0  0  0  0  0  0  0  0  0  0  0
    0.3754    7.8811    0.0000 N   0  0  0  0  0  0  0  0  0  0  0  0
    0.4468    9.3794    0.0000 C   0  0  0  0  0  0  0  0  0  0  0  0
   -1.1229    7.8098    0.0000 C   0  0  0  0  0  0  0  0  0  0  0  0
   -1.3363    9.2945    0.0000 C   0  0  0  0  0  0  0  0  0  0  0  0
   -0.1573   10.2217    0.0000 C   0  0  0  0  0  0  0  0  0  0  0  0
   -2.7289    9.8520    0.0000 C   0  0  0  0  0  0  0  0  0  0  0  0
   -2.9424   11.3367    0.0000 N   0  0  0  0  0  0  0  0  0  0  0  0
   -4.3349   11.8942    0.0000 C   0  0  0  0  0  0  0  0  0  0  0  0
   -4.5484   13.3790    0.0000 C   0  0  0  0  0  0  0  0  0  0  0  0
   -4.2926   14.8570    0.0000 C   0  0  0  0  0  0  0  0  0  0  0  0
   -2.8079   15.0705    0.0000 C   0  0  0  0  0  0  0  0  0  0  0  0
   -2.1460   13.7244    0.0000 C   0  0  0  0  0  0  0  0  0  0  0  0
   -1.7633   12.2640    0.0000 C   0  0  0  0  0  0  0  0  0  0  0  0
   -3.2217   12.6790    0.0000 O   0  0  0  0  0  0  0  0  0  0  0  0
   -2.5806    7.4561    0.0000 C   0  0  0  0  0  0  0  0  0  0  0  0
   -3.0712    8.8736    0.0000 O   0  0  0  0  0  0  0  0  0  0  0  0
   -3.9450    6.8330    0.0000 N   0  0  0  0  0  0  0  0  0  0  0  0
   -5.1669    5.9629    0.0000 C   0  0  0  0  0  0  0  0  0  0  0  0
   -6.1492    7.0966    0.0000 C   0  0  0  0  0  0  0  0  0  0  0  0
   -5.6586    8.5141    0.0000 C   0  0  0  0  0  0  0  0  0  0  0  0
   -7.6221    6.8127    0.0000 C   0  0  0  0  0  0  0  0  0  0  0  0
   -6.2020    4.8773    0.0000 C   0  0  0  0  0  0  0  0  0  0  0  0
   -7.3811    5.8046    0.0000 O   0  0  0  0  0  0  0  0  0  0  0  0
   -7.0130    3.6154    0.0000 N   0  0  0  0  0  0  0  0  0  0  0  0
   -8.3462    4.3028    0.0000 C   0  0  0  0  0  0  0  0  0  0  0  0
   -7.5705    2.2229    0.0000 C   0  0  0  0  0  0  0  0  0  0  0  0
   -9.0097    2.6455    0.0000 C   0  0  0  0  0  0  0  0  0  0  0  0
   -9.3634    4.1032    0.0000 C   0  0  0  0  0  0  0  0  0  0  0  0
  -10.8026    4.5258    0.0000 C   0  0  0  0  0  0  0  0  0  0  0  0
   -8.2778    5.1383    0.0000 C   0  0  0  0  0  0  0  0  0  0  0  0
   -7.8544    0.7500    0.0000 C   0  0  0  0  0  0  0  0  0  0  0  0
   -9.3476    0.8926    0.0000 O   0  0  0  0  0  0  0  0  0  0  0  0
   -7.8544   -0.7500    0.0000 N   0  0  0  0  0  0  0  0  0  0  0  0
   -7.5705   -2.2229    0.0000 C   0  0  0  0  0  0  0  0  0  0  0  0
   -9.0097   -2.6455    0.0000 C   0  0  0  0  0  0  0  0  0  0  0  0
   -7.0130   -3.6154    0.0000 C   0  0  0  0  0  0  0  0  0  0  0  0
   -8.3462   -4.3028    0.0000 O   0  0  0  0  0  0  0  0  0  0  0  0
   -6.2020   -4.8773    0.0000 N   0  0  0  0  0  0  0  0  0  0  0  0
   -5.1669   -5.9629    0.0000 C   0  0  0  0  0  0  0  0  0  0  0  0
   -6.1492   -7.0966    0.0000 C   0  0  0  0  0  0  0  0  0  0  0  0
   -3.9450   -6.8330    0.0000 C   0  0  0  0  0  0  0  0  0  0  0  0
   -4.6950   -8.1320    0.0000 O   0  0  0  0  0  0  0  0  0  0  0  0
   -2.5806   -7.4561    0.0000 N   0  0  0  0  0  0  0  0  0  0  0  0
   -3.0712   -8.8736    0.0000 C   0  0  0  0  0  0  0  0  0  0  0  0
   -1.1229   -7.8098    0.0000 C   0  0  0  0  0  0  0  0  0  0  0  0
   -1.3363   -9.2945    0.0000 C   0  0  0  0  0  0  0  0  0  0  0  0
   -2.7289   -9.8520    0.0000 C   0  0  0  0  0  0  0  0  0  0  0  0
   -2.9424  -11.3367    0.0000 C   0  0  0  0  0  0  0  0  0  0  0  0
   -3.9080   -8.9248    0.0000 C   0  0  0  0  0  0  0  0  0  0  0  0
    0.3754   -7.8811    0.0000 C   0  0  0  0  0  0  0  0  0  0  0  0
    0.4468   -9.3794    0.0000 O   0  0  0  0  0  0  0  0  0  0  0  0
    1.8602   -7.6677    0.0000 N   0  0  0  0  0  0  0  0  0  0  0  0
    2.2138   -9.1254    0.0000 C   0  0  0  0  0  0  0  0  0  0  0  0
    3.2777   -7.1771    0.0000 C   0  0  0  0  0  0  0  0  0  0  0  0
    3.9008   -8.5415    0.0000 C   0  0  0  0  0  0  0  0  0  0  0  0
    3.0307   -9.7634    0.0000 C   0  0  0  0  0  0  0  0  0  0  0  0
    3.6538  -11.1278    0.0000 C   0  0  0  0  0  0  0  0  0  0  0  0
    1.5375   -9.6208    0.0000 C   0  0  0  0  0  0  0  0  0  0  0  0
    4.5767   -6.4271    0.0000 C   0  0  0  0  0  0  0  0  0  0  0  0
    5.4468   -7.6489    0.0000 O   0  0  0  0  0  0  0  0  0  0  0  0
    5.7103   -5.4448    0.0000 N   0  0  0  0  0  0  0  0  0  0  0  0
    6.7959   -6.4799    0.0000 C   0  0  0  0  0  0  0  0  0  0  0  0
    6.6376   -4.2657    0.0000 C   0  0  0  0  0  0  0  0  0  0  0  0
    7.8994   -5.0767    0.0000 C   0  0  0  0  0  0  0  0  0  0  0  0
    7.8281   -6.5750    0.0000 C   0  0  0  0  0  0  0  0  0  0  0  0
    9.2327   -4.3893    0.0000 C   0  0  0  0  0  0  0  0  0  0  0  0
    7.3249   -2.9324    0.0000 C   0  0  0  0  0  0  0  0  0  0  0  0
    8.7175   -3.4899    0.0000 O   0  0  0  0  0  0  0  0  0  0  0  0
    7.7475   -1.4932    0.0000 N   0  0  0  0  0  0  0  0  0  0  0  0
    9.2204   -1.7771    0.0000 C   0  0  0  0  0  0  0  0  0  0  0  0
  1  2  1  0
  2  3  2  0
  3  4  1  0
  4  5  1  0
  5  6  1  6
  5  7  1  0
  7  8  1  6
  7  9  1  0
  9 10  1  6
 10 11  2  0
 10 12  1  0
 12 13  1  0
 13 14  1  6
 14 15  1  0
 13 16  1  0
 16 17  2  0
 16 18  1  0
 18 19  1  0
 18 20  1  0
 20 21  1  1
 20 22  1  0
 22 23  2  0
 22 24  1  0
 24 25  1  0
 24 26  1  0
 26 27  1  0
 27 28  1  1
 27 29  1  0
 29 30  1  0
 30 31  1  0
 31 32  1  0
 32 33  1  0
 33 34  1  0
 34 35  1  0
 35 36  1  0
 35 37  1  0
 26 38  1  6
 38 39  2  0
 38 40  1  0
 40 41  1  0
 41 42  1  6
 42 43  1  0
 42 44  1  0
 41 45  1  0
 45 46  2  0
 45 47  1  0
 47 48  1  0
 47 49  1  0
 49 50  1  6
 50 51  1  0
 51 52  1  0
 51 53  1  0
 49 54  1  0
 54 55  2  0
 54 56  1  0
 56 57  1  0
 57 58  1  6
 57 59  1  0
 59 60  2  0
 59 61  1  0
 61 62  1  0
 62 63  1  1
 62 64  1  0
 64 65  2  0
 64 66  1  0
 66 67  1  0
 66 68  1  0
 68 69  1  6
 69 70  1  0
 70 71  1  0
 70 72  1  0
 68 73  1  0
 73 74  2  0
 73 75  1  0
 75 76  1  0
 75 77  1  0
 77 78  1  6
 78 79  1  0
 79 80  1  0
 79 81  1  0
 77 82  1  0
 82 83  2  0
 82 84  1  0
 84 85  1  0
 84 86  1  0
 86 87  1  6
 87 88  1  0
 87 89  1  0
 86 90  1  0
 90 91  2  0
 90 92  1  0
 92 93  1  0
 92  9  1  0
 36 30  1  0
 37 32  1  0
M  END
>  <assay_description>  (29) 
Inhibition of OATP1B1 (unknown origin) expressed in CHO cells using 8-fluorescein-cAMP substrate by fluorescent photometry

>  <molecule_pref_name>  (29) 
None

>  <canonical_smiles>  (29) 
C/C=C/C[C@@H](C)[C@@H](O)[C@H]1C(=O)N[C@@H](CC)C(=O)N(C)[C@H](C)C(=O)N(C)[C@@H]([C@H](C)CN2CC3CCC(C2)O3)C(=O)N[C@@H](C(C)C)C(=O)N(C)[C@@H](CC(C)C)C(=O)N[C@@H](C)C(=O)N[C@H](C)C(=O)N(C)[C@@H](CC(C)C)C(=O)N(C)[C@@H](CC(C)C)C(=O)N(C)[C@@H](C(C)C)C(=O)N1C

>  <pchembl_value>  (29) 
5.75

>  <standard_type>  (29) 
IC50

>  <standard_relation>  (29) 
=

>  <standard_value>  (29) 
1800.0

>  <standard_units>  (29) 
nM

>  <target_pref_name>  (29) 
Solute carrier organic anion transporter family member 1B1

>  <target_organism>  (29) 
Homo sapiens

$$$$
CHEMBL3344497
     RDKit          2D

 92 93  0  0  0  0  0  0  0  0999 V2000
   12.3901   -5.1962    0.0000 C   0  0  0  0  0  0  0  0  0  0  0  0
   11.6401   -3.8971    0.0000 C   0  0  0  0  0  0  0  0  0  0  0  0
   10.1401   -3.8971    0.0000 C   0  0  0  0  0  0  0  0  0  0  0  0
    9.3901   -2.5981    0.0000 C   0  0  0  0  0  0  0  0  0  0  0  0
   10.1401   -1.2990    0.0000 C   0  0  0  0  0  0  0  0  0  0  0  0
   11.6401   -1.2990    0.0000 C   0  0  0  0  0  0  0  0  0  0  0  0
    9.3901    0.0000    0.0000 C   0  0  0  0  0  0  0  0  0  0  0  0
   10.1401    1.2990    0.0000 O   0  0  0  0  0  0  0  0  0  0  0  0
    7.8901    0.0000    0.0000 C   0  0  0  0  0  0  0  0  0  0  0  0
    7.7475    1.4932    0.0000 C   0  0  0  0  0  0  0  0  0  0  0  0
    9.2204    1.7771    0.0000 O   0  0  0  0  0  0  0  0  0  0  0  0
    7.3249    2.9324    0.0000 N   0  0  0  0  0  0  0  0  0  0  0  0
    6.6376    4.2657    0.0000 C   0  0  0  0  0  0  0  0  0  0  0  0
    7.8994    5.0767    0.0000 C   0  0  0  0  0  0  0  0  0  0  0  0
    9.2327    4.3893    0.0000 C   0  0  0  0  0  0  0  0  0  0  0  0
    5.7103    5.4448    0.0000 C   0  0  0  0  0  0  0  0  0  0  0  0
    6.7959    6.4799    0.0000 O   0  0  0  0  0  0  0  0  0  0  0  0
    4.5767    6.4271    0.0000 N   0  0  0  0  0  0  0  0  0  0  0  0
    5.4468    7.6489    0.0000 C   0  0  0  0  0  0  0  0  0  0  0  0
    3.2777    7.1771    0.0000 C   0  0  0  0  0  0  0  0  0  0  0  0
    3.9008    8.5415    0.0000 C   0  0  0  0  0  0  0  0  0  0  0  0
    1.8602    7.6677    0.0000 C   0  0  0  0  0  0  0  0  0  0  0  0
    2.2138    9.1254    0.0000 O   0  0  0  0  0  0  0  0  0  0  0  0
    0.3754    7.8811    0.0000 N   0  0  0  0  0  0  0  0  0  0  0  0
    0.4468    9.3794    0.0000 C   0  0  0  0  0  0  0  0  0  0  0  0
   -1.1229    7.8098    0.0000 C   0  0  0  0  0  0  0  0  0  0  0  0
   -1.3363    9.2945    0.0000 C   0  0  0  0  0  0  0  0  0  0  0  0
   -0.1573   10.2217    0.0000 C   0  0  0  0  0  0  0  0  0  0  0  0
   -2.7289    9.8520    0.0000 C   0  0  0  0  0  0  0  0  0  0  0  0
   -2.9424   11.3367    0.0000 N   0  0  0  0  0  0  0  0  0  0  0  0
   -4.2690   12.0367    0.0000 C   0  0  0  0  0  0  0  0  0  0  0  0
   -4.0132   13.5148    0.0000 C   0  0  0  0  0  0  0  0  0  0  0  0
   -2.5285   13.7282    0.0000 C   0  0  0  0  0  0  0  0  0  0  0  0
   -2.8960   15.1825    0.0000 F   0  0  0  0  0  0  0  0  0  0  0  0
   -1.1206   14.2457    0.0000 F   0  0  0  0  0  0  0  0  0  0  0  0
   -1.8667   12.3821    0.0000 C   0  0  0  0  0  0  0  0  0  0  0  0
   -2.5806    7.4561    0.0000 C   0  0  0  0  0  0  0  0  0  0  0  0
   -3.0712    8.8736    0.0000 O   0  0  0  0  0  0  0  0  0  0  0  0
   -3.9450    6.8330    0.0000 N   0  0  0  0  0  0  0  0  0  0  0  0
   -5.1669    5.9629    0.0000 C   0  0  0  0  0  0  0  0  0  0  0  0
   -6.1492    7.0966    0.0000 C   0  0  0  0  0  0  0  0  0  0  0  0
   -5.6586    8.5141    0.0000 C   0  0  0  0  0  0  0  0  0  0  0  0
   -7.6221    6.8127    0.0000 C   0  0  0  0  0  0  0  0  0  0  0  0
   -6.2020    4.8773    0.0000 C   0  0  0  0  0  0  0  0  0  0  0  0
   -7.3811    5.8046    0.0000 O   0  0  0  0  0  0  0  0  0  0  0  0
   -7.0130    3.6154    0.0000 N   0  0  0  0  0  0  0  0  0  0  0  0
   -8.3462    4.3028    0.0000 C   0  0  0  0  0  0  0  0  0  0  0  0
   -7.5705    2.2229    0.0000 C   0  0  0  0  0  0  0  0  0  0  0  0
   -9.0097    2.6455    0.0000 C   0  0  0  0  0  0  0  0  0  0  0  0
   -9.3634    4.1032    0.0000 C   0  0  0  0  0  0  0  0  0  0  0  0
  -10.8026    4.5258    0.0000 C   0  0  0  0  0  0  0  0  0  0  0  0
   -8.2778    5.1383    0.0000 C   0  0  0  0  0  0  0  0  0  0  0  0
   -7.8544    0.7500    0.0000 C   0  0  0  0  0  0  0  0  0  0  0  0
   -9.3476    0.8926    0.0000 O   0  0  0  0  0  0  0  0  0  0  0  0
   -7.8544   -0.7500    0.0000 N   0  0  0  0  0  0  0  0  0  0  0  0
   -7.5705   -2.2229    0.0000 C   0  0  0  0  0  0  0  0  0  0  0  0
   -9.0097   -2.6455    0.0000 C   0  0  0  0  0  0  0  0  0  0  0  0
   -7.0130   -3.6154    0.0000 C   0  0  0  0  0  0  0  0  0  0  0  0
   -8.3462   -4.3028    0.0000 O   0  0  0  0  0  0  0  0  0  0  0  0
   -6.2020   -4.8773    0.0000 N   0  0  0  0  0  0  0  0  0  0  0  0
   -5.1669   -5.9629    0.0000 C   0  0  0  0  0  0  0  0  0  0  0  0
   -6.1492   -7.0966    0.0000 C   0  0  0  0  0  0  0  0  0  0  0  0
   -3.9450   -6.8330    0.0000 C   0  0  0  0  0  0  0  0  0  0  0  0
   -4.6950   -8.1320    0.0000 O   0  0  0  0  0  0  0  0  0  0  0  0
   -2.5806   -7.4561    0.0000 N   0  0  0  0  0  0  0  0  0  0  0  0
   -3.0712   -8.8736    0.0000 C   0  0  0  0  0  0  0  0  0  0  0  0
   -1.1229   -7.8098    0.0000 C   0  0  0  0  0  0  0  0  0  0  0  0
   -1.3363   -9.2945    0.0000 C   0  0  0  0  0  0  0  0  0  0  0  0
   -2.7289   -9.8520    0.0000 C   0  0  0  0  0  0  0  0  0  0  0  0
   -2.9424  -11.3367    0.0000 C   0  0  0  0  0  0  0  0  0  0  0  0
   -3.9080   -8.9248    0.0000 C   0  0  0  0  0  0  0  0  0  0  0  0
    0.3754   -7.8811    0.0000 C   0  0  0  0  0  0  0  0  0  0  0  0
    0.4468   -9.3794    0.0000 O   0  0  0  0  0  0  0  0  0  0  0  0
    1.8602   -7.6677    0.0000 N   0  0  0  0  0  0  0  0  0  0  0  0
    2.2138   -9.1254    0.0000 C   0  0  0  0  0  0  0  0  0  0  0  0
    3.2777   -7.1771    0.0000 C   0  0  0  0  0  0  0  0  0  0  0  0
    3.9008   -8.5415    0.0000 C   0  0  0  0  0  0  0  0  0  0  0  0
    3.0307   -9.7634    0.0000 C   0  0  0  0  0  0  0  0  0  0  0  0
    3.6538  -11.1278    0.0000 C   0  0  0  0  0  0  0  0  0  0  0  0
    1.5375   -9.6208    0.0000 C   0  0  0  0  0  0  0  0  0  0  0  0
    4.5767   -6.4271    0.0000 C   0  0  0  0  0  0  0  0  0  0  0  0
    5.4468   -7.6489    0.0000 O   0  0  0  0  0  0  0  0  0  0  0  0
    5.7103   -5.4448    0.0000 N   0  0  0  0  0  0  0  0  0  0  0  0
    6.7959   -6.4799    0.0000 C   0  0  0  0  0  0  0  0  0  0  0  0
    6.6376   -4.2657    0.0000 C   0  0  0  0  0  0  0  0  0  0  0  0
    7.8994   -5.0767    0.0000 C   0  0  0  0  0  0  0  0  0  0  0  0
    7.8281   -6.5750    0.0000 C   0  0  0  0  0  0  0  0  0  0  0  0
    9.2327   -4.3893    0.0000 C   0  0  0  0  0  0  0  0  0  0  0  0
    7.3249   -2.9324    0.0000 C   0  0  0  0  0  0  0  0  0  0  0  0
    8.7175   -3.4899    0.0000 O   0  0  0  0  0  0  0  0  0  0  0  0
    7.7475   -1.4932    0.0000 N   0  0  0  0  0  0  0  0  0  0  0  0
    9.2204   -1.7771    0.0000 C   0  0  0  0  0  0  0  0  0  0  0  0
  1  2  1  0
  2  3  2  0
  3  4  1  0
  4  5  1  0
  5  6  1  6
  5  7  1  0
  7  8  1  6
  7  9  1  0
  9 10  1  6
 10 11  2  0
 10 12  1  0
 12 13  1  0
 13 14  1  6
 14 15  1  0
 13 16  1  0
 16 17  2  0
 16 18  1  0
 18 19  1  0
 18 20  1  0
 20 21  1  1
 20 22  1  0
 22 23  2  0
 22 24  1  0
 24 25  1  0
 24 26  1  0
 26 27  1  0
 27 28  1  1
 27 29  1  0
 29 30  1  0
 30 31  1  0
 31 32  1  0
 32 33  1  0
 33 34  1  0
 33 35  1  0
 33 36  1  0
 26 37  1  6
 37 38  2  0
 37 39  1  0
 39 40  1  0
 40 41  1  6
 41 42  1  0
 41 43  1  0
 40 44  1  0
 44 45  2  0
 44 46  1  0
 46 47  1  0
 46 48  1  0
 48 49  1  6
 49 50  1  0
 50 51  1  0
 50 52  1  0
 48 53  1  0
 53 54  2  0
 53 55  1  0
 55 56  1  0
 56 57  1  6
 56 58  1  0
 58 59  2  0
 58 60  1  0
 60 61  1  0
 61 62  1  1
 61 63  1  0
 63 64  2  0
 63 65  1  0
 65 66  1  0
 65 67  1  0
 67 68  1  6
 68 69  1  0
 69 70  1  0
 69 71  1  0
 67 72  1  0
 72 73  2  0
 72 74  1  0
 74 75  1  0
 74 76  1  0
 76 77  1  6
 77 78  1  0
 78 79  1  0
 78 80  1  0
 76 81  1  0
 81 82  2  0
 81 83  1  0
 83 84  1  0
 83 85  1  0
 85 86  1  6
 86 87  1  0
 86 88  1  0
 85 89  1  0
 89 90  2  0
 89 91  1  0
 91 92  1  0
 91  9  1  0
 36 30  1  0
M  END
>  <assay_description>  (30) 
Inhibition of OATP1B1 (unknown origin) expressed in CHO cells using 8-fluorescein-cAMP substrate by fluorescent photometry

>  <molecule_pref_name>  (30) 
None

>  <canonical_smiles>  (30) 
C/C=C/C[C@@H](C)[C@@H](O)[C@H]1C(=O)N[C@@H](CC)C(=O)N(C)[C@H](C)C(=O)N(C)[C@@H]([C@H](C)CN2CCC(F)(F)C2)C(=O)N[C@@H](C(C)C)C(=O)N(C)[C@@H](CC(C)C)C(=O)N[C@@H](C)C(=O)N[C@H](C)C(=O)N(C)[C@@H](CC(C)C)C(=O)N(C)[C@@H](CC(C)C)C(=O)N(C)[C@@H](C(C)C)C(=O)N1C

>  <pchembl_value>  (30) 
5.85

>  <standard_type>  (30) 
IC50

>  <standard_relation>  (30) 
=

>  <standard_value>  (30) 
1400.0

>  <standard_units>  (30) 
nM

>  <target_pref_name>  (30) 
Solute carrier organic anion transporter family member 1B1

>  <target_organism>  (30) 
Homo sapiens

$$$$
CHEMBL3344496
     RDKit          2D

 92 93  0  0  0  0  0  0  0  0999 V2000
   12.3901   -5.1962    0.0000 C   0  0  0  0  0  0  0  0  0  0  0  0
   11.6401   -3.8971    0.0000 C   0  0  0  0  0  0  0  0  0  0  0  0
   10.1401   -3.8971    0.0000 C   0  0  0  0  0  0  0  0  0  0  0  0
    9.3901   -2.5981    0.0000 C   0  0  0  0  0  0  0  0  0  0  0  0
   10.1401   -1.2990    0.0000 C   0  0  0  0  0  0  0  0  0  0  0  0
   11.6401   -1.2990    0.0000 C   0  0  0  0  0  0  0  0  0  0  0  0
    9.3901    0.0000    0.0000 C   0  0  0  0  0  0  0  0  0  0  0  0
   10.1401    1.2990    0.0000 O   0  0  0  0  0  0  0  0  0  0  0  0
    7.8901    0.0000    0.0000 C   0  0  0  0  0  0  0  0  0  0  0  0
    7.7475    1.4932    0.0000 C   0  0  0  0  0  0  0  0  0  0  0  0
    9.2204    1.7771    0.0000 O   0  0  0  0  0  0  0  0  0  0  0  0
    7.3249    2.9324    0.0000 N   0  0  0  0  0  0  0  0  0  0  0  0
    6.6376    4.2657    0.0000 C   0  0  0  0  0  0  0  0  0  0  0  0
    7.8994    5.0767    0.0000 C   0  0  0  0  0  0  0  0  0  0  0  0
    9.2327    4.3893    0.0000 C   0  0  0  0  0  0  0  0  0  0  0  0
    5.7103    5.4448    0.0000 C   0  0  0  0  0  0  0  0  0  0  0  0
    6.7959    6.4799    0.0000 O   0  0  0  0  0  0  0  0  0  0  0  0
    4.5767    6.4271    0.0000 N   0  0  0  0  0  0  0  0  0  0  0  0
    5.4468    7.6489    0.0000 C   0  0  0  0  0  0  0  0  0  0  0  0
    3.2777    7.1771    0.0000 C   0  0  0  0  0  0  0  0  0  0  0  0
    3.9008    8.5415    0.0000 C   0  0  0  0  0  0  0  0  0  0  0  0
    1.8602    7.6677    0.0000 C   0  0  0  0  0  0  0  0  0  0  0  0
    2.2138    9.1254    0.0000 O   0  0  0  0  0  0  0  0  0  0  0  0
    0.3754    7.8811    0.0000 N   0  0  0  0  0  0  0  0  0  0  0  0
    0.4468    9.3794    0.0000 C   0  0  0  0  0  0  0  0  0  0  0  0
   -1.1229    7.8098    0.0000 C   0  0  0  0  0  0  0  0  0  0  0  0
   -1.3363    9.2945    0.0000 C   0  0  0  0  0  0  0  0  0  0  0  0
   -0.1573   10.2217    0.0000 C   0  0  0  0  0  0  0  0  0  0  0  0
   -2.7289    9.8520    0.0000 C   0  0  0  0  0  0  0  0  0  0  0  0
   -2.9424   11.3367    0.0000 N   0  0  0  0  0  0  0  0  0  0  0  0
   -4.3727   11.7886    0.0000 C   0  0  0  0  0  0  0  0  0  0  0  0
   -4.9112   13.1886    0.0000 C   0  0  0  0  0  0  0  0  0  0  0  0
   -4.1524   14.4825    0.0000 C   0  0  0  0  0  0  0  0  0  0  0  0
   -2.6676   14.6960    0.0000 O   0  0  0  0  0  0  0  0  0  0  0  0
   -1.5750   13.6683    0.0000 C   0  0  0  0  0  0  0  0  0  0  0  0
   -1.6973   12.1733    0.0000 C   0  0  0  0  0  0  0  0  0  0  0  0
   -2.5806    7.4561    0.0000 C   0  0  0  0  0  0  0  0  0  0  0  0
   -3.0712    8.8736    0.0000 O   0  0  0  0  0  0  0  0  0  0  0  0
   -3.9450    6.8330    0.0000 N   0  0  0  0  0  0  0  0  0  0  0  0
   -5.1669    5.9629    0.0000 C   0  0  0  0  0  0  0  0  0  0  0  0
   -6.1492    7.0966    0.0000 C   0  0  0  0  0  0  0  0  0  0  0  0
   -5.6586    8.5141    0.0000 C   0  0  0  0  0  0  0  0  0  0  0  0
   -7.6221    6.8127    0.0000 C   0  0  0  0  0  0  0  0  0  0  0  0
   -6.2020    4.8773    0.0000 C   0  0  0  0  0  0  0  0  0  0  0  0
   -7.3811    5.8046    0.0000 O   0  0  0  0  0  0  0  0  0  0  0  0
   -7.0130    3.6154    0.0000 N   0  0  0  0  0  0  0  0  0  0  0  0
   -8.3462    4.3028    0.0000 C   0  0  0  0  0  0  0  0  0  0  0  0
   -7.5705    2.2229    0.0000 C   0  0  0  0  0  0  0  0  0  0  0  0
   -9.0097    2.6455    0.0000 C   0  0  0  0  0  0  0  0  0  0  0  0
   -9.3634    4.1032    0.0000 C   0  0  0  0  0  0  0  0  0  0  0  0
  -10.8026    4.5258    0.0000 C   0  0  0  0  0  0  0  0  0  0  0  0
   -8.2778    5.1383    0.0000 C   0  0  0  0  0  0  0  0  0  0  0  0
   -7.8544    0.7500    0.0000 C   0  0  0  0  0  0  0  0  0  0  0  0
   -9.3476    0.8926    0.0000 O   0  0  0  0  0  0  0  0  0  0  0  0
   -7.8544   -0.7500    0.0000 N   0  0  0  0  0  0  0  0  0  0  0  0
   -7.5705   -2.2229    0.0000 C   0  0  0  0  0  0  0  0  0  0  0  0
   -9.0097   -2.6455    0.0000 C   0  0  0  0  0  0  0  0  0  0  0  0
   -7.0130   -3.6154    0.0000 C   0  0  0  0  0  0  0  0  0  0  0  0
   -8.3462   -4.3028    0.0000 O   0  0  0  0  0  0  0  0  0  0  0  0
   -6.2020   -4.8773    0.0000 N   0  0  0  0  0  0  0  0  0  0  0  0
   -5.1669   -5.9629    0.0000 C   0  0  0  0  0  0  0  0  0  0  0  0
   -6.1492   -7.0966    0.0000 C   0  0  0  0  0  0  0  0  0  0  0  0
   -3.9450   -6.8330    0.0000 C   0  0  0  0  0  0  0  0  0  0  0  0
   -4.6950   -8.1320    0.0000 O   0  0  0  0  0  0  0  0  0  0  0  0
   -2.5806   -7.4561    0.0000 N   0  0  0  0  0  0  0  0  0  0  0  0
   -3.0712   -8.8736    0.0000 C   0  0  0  0  0  0  0  0  0  0  0  0
   -1.1229   -7.8098    0.0000 C   0  0  0  0  0  0  0  0  0  0  0  0
   -1.3363   -9.2945    0.0000 C   0  0  0  0  0  0  0  0  0  0  0  0
   -2.7289   -9.8520    0.0000 C   0  0  0  0  0  0  0  0  0  0  0  0
   -2.9424  -11.3367    0.0000 C   0  0  0  0  0  0  0  0  0  0  0  0
   -3.9080   -8.9248    0.0000 C   0  0  0  0  0  0  0  0  0  0  0  0
    0.3754   -7.8811    0.0000 C   0  0  0  0  0  0  0  0  0  0  0  0
    0.4468   -9.3794    0.0000 O   0  0  0  0  0  0  0  0  0  0  0  0
    1.8602   -7.6677    0.0000 N   0  0  0  0  0  0  0  0  0  0  0  0
    2.2138   -9.1254    0.0000 C   0  0  0  0  0  0  0  0  0  0  0  0
    3.2777   -7.1771    0.0000 C   0  0  0  0  0  0  0  0  0  0  0  0
    3.9008   -8.5415    0.0000 C   0  0  0  0  0  0  0  0  0  0  0  0
    3.0307   -9.7634    0.0000 C   0  0  0  0  0  0  0  0  0  0  0  0
    3.6538  -11.1278    0.0000 C   0  0  0  0  0  0  0  0  0  0  0  0
    1.5375   -9.6208    0.0000 C   0  0  0  0  0  0  0  0  0  0  0  0
    4.5767   -6.4271    0.0000 C   0  0  0  0  0  0  0  0  0  0  0  0
    5.4468   -7.6489    0.0000 O   0  0  0  0  0  0  0  0  0  0  0  0
    5.7103   -5.4448    0.0000 N   0  0  0  0  0  0  0  0  0  0  0  0
    6.7959   -6.4799    0.0000 C   0  0  0  0  0  0  0  0  0  0  0  0
    6.6376   -4.2657    0.0000 C   0  0  0  0  0  0  0  0  0  0  0  0
    7.8994   -5.0767    0.0000 C   0  0  0  0  0  0  0  0  0  0  0  0
    7.8281   -6.5750    0.0000 C   0  0  0  0  0  0  0  0  0  0  0  0
    9.2327   -4.3893    0.0000 C   0  0  0  0  0  0  0  0  0  0  0  0
    7.3249   -2.9324    0.0000 C   0  0  0  0  0  0  0  0  0  0  0  0
    8.7175   -3.4899    0.0000 O   0  0  0  0  0  0  0  0  0  0  0  0
    7.7475   -1.4932    0.0000 N   0  0  0  0  0  0  0  0  0  0  0  0
    9.2204   -1.7771    0.0000 C   0  0  0  0  0  0  0  0  0  0  0  0
  1  2  1  0
  2  3  2  0
  3  4  1  0
  4  5  1  0
  5  6  1  6
  5  7  1  0
  7  8  1  6
  7  9  1  0
  9 10  1  6
 10 11  2  0
 10 12  1  0
 12 13  1  0
 13 14  1  6
 14 15  1  0
 13 16  1  0
 16 17  2  0
 16 18  1  0
 18 19  1  0
 18 20  1  0
 20 21  1  1
 20 22  1  0
 22 23  2  0
 22 24  1  0
 24 25  1  0
 24 26  1  0
 26 27  1  0
 27 28  1  1
 27 29  1  0
 29 30  1  0
 30 31  1  0
 31 32  1  0
 32 33  1  0
 33 34  1  0
 34 35  1  0
 35 36  1  0
 26 37  1  6
 37 38  2  0
 37 39  1  0
 39 40  1  0
 40 41  1  6
 41 42  1  0
 41 43  1  0
 40 44  1  0
 44 45  2  0
 44 46  1  0
 46 47  1  0
 46 48  1  0
 48 49  1  6
 49 50  1  0
 50 51  1  0
 50 52  1  0
 48 53  1  0
 53 54  2  0
 53 55  1  0
 55 56  1  0
 56 57  1  6
 56 58  1  0
 58 59  2  0
 58 60  1  0
 60 61  1  0
 61 62  1  1
 61 63  1  0
 63 64  2  0
 63 65  1  0
 65 66  1  0
 65 67  1  0
 67 68  1  6
 68 69  1  0
 69 70  1  0
 69 71  1  0
 67 72  1  0
 72 73  2  0
 72 74  1  0
 74 75  1  0
 74 76  1  0
 76 77  1  6
 77 78  1  0
 78 79  1  0
 78 80  1  0
 76 81  1  0
 81 82  2  0
 81 83  1  0
 83 84  1  0
 83 85  1  0
 85 86  1  6
 86 87  1  0
 86 88  1  0
 85 89  1  0
 89 90  2  0
 89 91  1  0
 91 92  1  0
 91  9  1  0
 36 30  1  0
M  END
>  <assay_description>  (31) 
Inhibition of OATP1B1 (unknown origin) expressed in CHO cells using 8-fluorescein-cAMP substrate by fluorescent photometry

>  <molecule_pref_name>  (31) 
None

>  <canonical_smiles>  (31) 
C/C=C/C[C@@H](C)[C@@H](O)[C@H]1C(=O)N[C@@H](CC)C(=O)N(C)[C@H](C)C(=O)N(C)[C@@H]([C@H](C)CN2CCCOCC2)C(=O)N[C@@H](C(C)C)C(=O)N(C)[C@@H](CC(C)C)C(=O)N[C@@H](C)C(=O)N[C@H](C)C(=O)N(C)[C@@H](CC(C)C)C(=O)N(C)[C@@H](CC(C)C)C(=O)N(C)[C@@H](C(C)C)C(=O)N1C

>  <pchembl_value>  (31) 
5.75

>  <standard_type>  (31) 
IC50

>  <standard_relation>  (31) 
=

>  <standard_value>  (31) 
1800.0

>  <standard_units>  (31) 
nM

>  <target_pref_name>  (31) 
Solute carrier organic anion transporter family member 1B1

>  <target_organism>  (31) 
Homo sapiens

$$$$
CHEMBL3344495
     RDKit          2D

 91 92  0  0  0  0  0  0  0  0999 V2000
   12.3901   -5.1962    0.0000 C   0  0  0  0  0  0  0  0  0  0  0  0
   11.6401   -3.8971    0.0000 C   0  0  0  0  0  0  0  0  0  0  0  0
   10.1401   -3.8971    0.0000 C   0  0  0  0  0  0  0  0  0  0  0  0
    9.3901   -2.5981    0.0000 C   0  0  0  0  0  0  0  0  0  0  0  0
   10.1401   -1.2990    0.0000 C   0  0  0  0  0  0  0  0  0  0  0  0
   11.6401   -1.2990    0.0000 C   0  0  0  0  0  0  0  0  0  0  0  0
    9.3901    0.0000    0.0000 C   0  0  0  0  0  0  0  0  0  0  0  0
   10.1401    1.2990    0.0000 O   0  0  0  0  0  0  0  0  0  0  0  0
    7.8901    0.0000    0.0000 C   0  0  0  0  0  0  0  0  0  0  0  0
    7.7475    1.4932    0.0000 C   0  0  0  0  0  0  0  0  0  0  0  0
    9.2204    1.7771    0.0000 O   0  0  0  0  0  0  0  0  0  0  0  0
    7.3249    2.9324    0.0000 N   0  0  0  0  0  0  0  0  0  0  0  0
    6.6376    4.2657    0.0000 C   0  0  0  0  0  0  0  0  0  0  0  0
    7.8994    5.0767    0.0000 C   0  0  0  0  0  0  0  0  0  0  0  0
    9.2327    4.3893    0.0000 C   0  0  0  0  0  0  0  0  0  0  0  0
    5.7103    5.4448    0.0000 C   0  0  0  0  0  0  0  0  0  0  0  0
    6.7959    6.4799    0.0000 O   0  0  0  0  0  0  0  0  0  0  0  0
    4.5767    6.4271    0.0000 N   0  0  0  0  0  0  0  0  0  0  0  0
    5.4468    7.6489    0.0000 C   0  0  0  0  0  0  0  0  0  0  0  0
    3.2777    7.1771    0.0000 C   0  0  0  0  0  0  0  0  0  0  0  0
    3.9008    8.5415    0.0000 C   0  0  0  0  0  0  0  0  0  0  0  0
    1.8602    7.6677    0.0000 C   0  0  0  0  0  0  0  0  0  0  0  0
    2.2138    9.1254    0.0000 O   0  0  0  0  0  0  0  0  0  0  0  0
    0.3754    7.8811    0.0000 N   0  0  0  0  0  0  0  0  0  0  0  0
    0.4468    9.3794    0.0000 C   0  0  0  0  0  0  0  0  0  0  0  0
   -1.1229    7.8098    0.0000 C   0  0  0  0  0  0  0  0  0  0  0  0
   -1.3363    9.2945    0.0000 C   0  0  0  0  0  0  0  0  0  0  0  0
   -0.1573   10.2217    0.0000 C   0  0  0  0  0  0  0  0  0  0  0  0
   -2.7289    9.8520    0.0000 C   0  0  0  0  0  0  0  0  0  0  0  0
   -2.9424   11.3367    0.0000 N   0  0  0  0  0  0  0  0  0  0  0  0
   -1.7633   12.2640    0.0000 C   0  0  0  0  0  0  0  0  0  0  0  0
   -1.9768   13.7487    0.0000 C   0  0  0  0  0  0  0  0  0  0  0  0
   -3.3693   14.3062    0.0000 O   0  0  0  0  0  0  0  0  0  0  0  0
   -4.5484   13.3790    0.0000 C   0  0  0  0  0  0  0  0  0  0  0  0
   -4.3349   11.8942    0.0000 C   0  0  0  0  0  0  0  0  0  0  0  0
   -2.5806    7.4561    0.0000 C   0  0  0  0  0  0  0  0  0  0  0  0
   -3.0712    8.8736    0.0000 O   0  0  0  0  0  0  0  0  0  0  0  0
   -3.9450    6.8330    0.0000 N   0  0  0  0  0  0  0  0  0  0  0  0
   -5.1669    5.9629    0.0000 C   0  0  0  0  0  0  0  0  0  0  0  0
   -6.1492    7.0966    0.0000 C   0  0  0  0  0  0  0  0  0  0  0  0
   -5.6586    8.5141    0.0000 C   0  0  0  0  0  0  0  0  0  0  0  0
   -7.6221    6.8127    0.0000 C   0  0  0  0  0  0  0  0  0  0  0  0
   -6.2020    4.8773    0.0000 C   0  0  0  0  0  0  0  0  0  0  0  0
   -7.3811    5.8046    0.0000 O   0  0  0  0  0  0  0  0  0  0  0  0
   -7.0130    3.6154    0.0000 N   0  0  0  0  0  0  0  0  0  0  0  0
   -8.3462    4.3028    0.0000 C   0  0  0  0  0  0  0  0  0  0  0  0
   -7.5705    2.2229    0.0000 C   0  0  0  0  0  0  0  0  0  0  0  0
   -9.0097    2.6455    0.0000 C   0  0  0  0  0  0  0  0  0  0  0  0
   -9.3634    4.1032    0.0000 C   0  0  0  0  0  0  0  0  0  0  0  0
  -10.8026    4.5258    0.0000 C   0  0  0  0  0  0  0  0  0  0  0  0
   -8.2778    5.1383    0.0000 C   0  0  0  0  0  0  0  0  0  0  0  0
   -7.8544    0.7500    0.0000 C   0  0  0  0  0  0  0  0  0  0  0  0
   -9.3476    0.8926    0.0000 O   0  0  0  0  0  0  0  0  0  0  0  0
   -7.8544   -0.7500    0.0000 N   0  0  0  0  0  0  0  0  0  0  0  0
   -7.5705   -2.2229    0.0000 C   0  0  0  0  0  0  0  0  0  0  0  0
   -9.0097   -2.6455    0.0000 C   0  0  0  0  0  0  0  0  0  0  0  0
   -7.0130   -3.6154    0.0000 C   0  0  0  0  0  0  0  0  0  0  0  0
   -8.3462   -4.3028    0.0000 O   0  0  0  0  0  0  0  0  0  0  0  0
   -6.2020   -4.8773    0.0000 N   0  0  0  0  0  0  0  0  0  0  0  0
   -5.1669   -5.9629    0.0000 C   0  0  0  0  0  0  0  0  0  0  0  0
   -6.1492   -7.0966    0.0000 C   0  0  0  0  0  0  0  0  0  0  0  0
   -3.9450   -6.8330    0.0000 C   0  0  0  0  0  0  0  0  0  0  0  0
   -4.6950   -8.1320    0.0000 O   0  0  0  0  0  0  0  0  0  0  0  0
   -2.5806   -7.4561    0.0000 N   0  0  0  0  0  0  0  0  0  0  0  0
   -3.0712   -8.8736    0.0000 C   0  0  0  0  0  0  0  0  0  0  0  0
   -1.1229   -7.8098    0.0000 C   0  0  0  0  0  0  0  0  0  0  0  0
   -1.3363   -9.2945    0.0000 C   0  0  0  0  0  0  0  0  0  0  0  0
   -2.7289   -9.8520    0.0000 C   0  0  0  0  0  0  0  0  0  0  0  0
   -2.9424  -11.3367    0.0000 C   0  0  0  0  0  0  0  0  0  0  0  0
   -3.9080   -8.9248    0.0000 C   0  0  0  0  0  0  0  0  0  0  0  0
    0.3754   -7.8811    0.0000 C   0  0  0  0  0  0  0  0  0  0  0  0
    0.4468   -9.3794    0.0000 O   0  0  0  0  0  0  0  0  0  0  0  0
    1.8602   -7.6677    0.0000 N   0  0  0  0  0  0  0  0  0  0  0  0
    2.2138   -9.1254    0.0000 C   0  0  0  0  0  0  0  0  0  0  0  0
    3.2777   -7.1771    0.0000 C   0  0  0  0  0  0  0  0  0  0  0  0
    3.9008   -8.5415    0.0000 C   0  0  0  0  0  0  0  0  0  0  0  0
    3.0307   -9.7634    0.0000 C   0  0  0  0  0  0  0  0  0  0  0  0
    3.6538  -11.1278    0.0000 C   0  0  0  0  0  0  0  0  0  0  0  0
    1.5375   -9.6208    0.0000 C   0  0  0  0  0  0  0  0  0  0  0  0
    4.5767   -6.4271    0.0000 C   0  0  0  0  0  0  0  0  0  0  0  0
    5.4468   -7.6489    0.0000 O   0  0  0  0  0  0  0  0  0  0  0  0
    5.7103   -5.4448    0.0000 N   0  0  0  0  0  0  0  0  0  0  0  0
    6.7959   -6.4799    0.0000 C   0  0  0  0  0  0  0  0  0  0  0  0
    6.6376   -4.2657    0.0000 C   0  0  0  0  0  0  0  0  0  0  0  0
    7.8994   -5.0767    0.0000 C   0  0  0  0  0  0  0  0  0  0  0  0
    7.8281   -6.5750    0.0000 C   0  0  0  0  0  0  0  0  0  0  0  0
    9.2327   -4.3893    0.0000 C   0  0  0  0  0  0  0  0  0  0  0  0
    7.3249   -2.9324    0.0000 C   0  0  0  0  0  0  0  0  0  0  0  0
    8.7175   -3.4899    0.0000 O   0  0  0  0  0  0  0  0  0  0  0  0
    7.7475   -1.4932    0.0000 N   0  0  0  0  0  0  0  0  0  0  0  0
    9.2204   -1.7771    0.0000 C   0  0  0  0  0  0  0  0  0  0  0  0
  1  2  1  0
  2  3  2  0
  3  4  1  0
  4  5  1  0
  5  6  1  6
  5  7  1  0
  7  8  1  6
  7  9  1  0
  9 10  1  6
 10 11  2  0
 10 12  1  0
 12 13  1  0
 13 14  1  6
 14 15  1  0
 13 16  1  0
 16 17  2  0
 16 18  1  0
 18 19  1  0
 18 20  1  0
 20 21  1  1
 20 22  1  0
 22 23  2  0
 22 24  1  0
 24 25  1  0
 24 26  1  0
 26 27  1  0
 27 28  1  1
 27 29  1  0
 29 30  1  0
 30 31  1  0
 31 32  1  0
 32 33  1  0
 33 34  1  0
 34 35  1  0
 26 36  1  6
 36 37  2  0
 36 38  1  0
 38 39  1  0
 39 40  1  6
 40 41  1  0
 40 42  1  0
 39 43  1  0
 43 44  2  0
 43 45  1  0
 45 46  1  0
 45 47  1  0
 47 48  1  6
 48 49  1  0
 49 50  1  0
 49 51  1  0
 47 52  1  0
 52 53  2  0
 52 54  1  0
 54 55  1  0
 55 56  1  6
 55 57  1  0
 57 58  2  0
 57 59  1  0
 59 60  1  0
 60 61  1  1
 60 62  1  0
 62 63  2  0
 62 64  1  0
 64 65  1  0
 64 66  1  0
 66 67  1  6
 67 68  1  0
 68 69  1  0
 68 70  1  0
 66 71  1  0
 71 72  2  0
 71 73  1  0
 73 74  1  0
 73 75  1  0
 75 76  1  6
 76 77  1  0
 77 78  1  0
 77 79  1  0
 75 80  1  0
 80 81  2  0
 80 82  1  0
 82 83  1  0
 82 84  1  0
 84 85  1  6
 85 86  1  0
 85 87  1  0
 84 88  1  0
 88 89  2  0
 88 90  1  0
 90 91  1  0
 90  9  1  0
 35 30  1  0
M  END
>  <assay_description>  (32) 
Inhibition of OATP1B1 (unknown origin) expressed in CHO cells using 8-fluorescein-cAMP substrate by fluorescent photometry

>  <molecule_pref_name>  (32) 
None

>  <canonical_smiles>  (32) 
C/C=C/C[C@@H](C)[C@@H](O)[C@H]1C(=O)N[C@@H](CC)C(=O)N(C)[C@H](C)C(=O)N(C)[C@@H]([C@H](C)CN2CCOCC2)C(=O)N[C@@H](C(C)C)C(=O)N(C)[C@@H](CC(C)C)C(=O)N[C@@H](C)C(=O)N[C@H](C)C(=O)N(C)[C@@H](CC(C)C)C(=O)N(C)[C@@H](CC(C)C)C(=O)N(C)[C@@H](C(C)C)C(=O)N1C

>  <pchembl_value>  (32) 
5.37

>  <standard_type>  (32) 
IC50

>  <standard_relation>  (32) 
=

>  <standard_value>  (32) 
4300.0

>  <standard_units>  (32) 
nM

>  <target_pref_name>  (32) 
Solute carrier organic anion transporter family member 1B1

>  <target_organism>  (32) 
Homo sapiens

$$$$
CHEMBL3344494
     RDKit          2D

 87 87  0  0  0  0  0  0  0  0999 V2000
   12.3901   -5.1962    0.0000 C   0  0  0  0  0  0  0  0  0  0  0  0
   11.6401   -3.8971    0.0000 C   0  0  0  0  0  0  0  0  0  0  0  0
   10.1401   -3.8971    0.0000 C   0  0  0  0  0  0  0  0  0  0  0  0
    9.3901   -2.5981    0.0000 C   0  0  0  0  0  0  0  0  0  0  0  0
   10.1401   -1.2990    0.0000 C   0  0  0  0  0  0  0  0  0  0  0  0
   11.6401   -1.2990    0.0000 C   0  0  0  0  0  0  0  0  0  0  0  0
    9.3901    0.0000    0.0000 C   0  0  0  0  0  0  0  0  0  0  0  0
   10.1401    1.2990    0.0000 O   0  0  0  0  0  0  0  0  0  0  0  0
    7.8901    0.0000    0.0000 C   0  0  0  0  0  0  0  0  0  0  0  0
    7.7475    1.4932    0.0000 C   0  0  0  0  0  0  0  0  0  0  0  0
    9.2204    1.7771    0.0000 O   0  0  0  0  0  0  0  0  0  0  0  0
    7.3249    2.9324    0.0000 N   0  0  0  0  0  0  0  0  0  0  0  0
    6.6376    4.2657    0.0000 C   0  0  0  0  0  0  0  0  0  0  0  0
    7.8994    5.0767    0.0000 C   0  0  0  0  0  0  0  0  0  0  0  0
    9.2327    4.3893    0.0000 C   0  0  0  0  0  0  0  0  0  0  0  0
    5.7103    5.4448    0.0000 C   0  0  0  0  0  0  0  0  0  0  0  0
    6.7959    6.4799    0.0000 O   0  0  0  0  0  0  0  0  0  0  0  0
    4.5767    6.4271    0.0000 N   0  0  0  0  0  0  0  0  0  0  0  0
    5.4468    7.6489    0.0000 C   0  0  0  0  0  0  0  0  0  0  0  0
    3.2777    7.1771    0.0000 C   0  0  0  0  0  0  0  0  0  0  0  0
    3.9008    8.5415    0.0000 C   0  0  0  0  0  0  0  0  0  0  0  0
    1.8602    7.6677    0.0000 C   0  0  0  0  0  0  0  0  0  0  0  0
    2.2138    9.1254    0.0000 O   0  0  0  0  0  0  0  0  0  0  0  0
    0.3754    7.8811    0.0000 N   0  0  0  0  0  0  0  0  0  0  0  0
    0.4468    9.3794    0.0000 C   0  0  0  0  0  0  0  0  0  0  0  0
   -1.1229    7.8098    0.0000 C   0  0  0  0  0  0  0  0  0  0  0  0
   -1.3363    9.2945    0.0000 C   0  0  0  0  0  0  0  0  0  0  0  0
   -0.1573   10.2217    0.0000 C   0  0  0  0  0  0  0  0  0  0  0  0
   -2.7289    9.8520    0.0000 C   0  0  0  0  0  0  0  0  0  0  0  0
   -2.9424   11.3367    0.0000 O   0  0  0  0  0  0  0  0  0  0  0  0
   -4.3349   11.8942    0.0000 C   0  0  0  0  0  0  0  0  0  0  0  0
   -2.5806    7.4561    0.0000 C   0  0  0  0  0  0  0  0  0  0  0  0
   -3.0712    8.8736    0.0000 O   0  0  0  0  0  0  0  0  0  0  0  0
   -3.9450    6.8330    0.0000 N   0  0  0  0  0  0  0  0  0  0  0  0
   -5.1669    5.9629    0.0000 C   0  0  0  0  0  0  0  0  0  0  0  0
   -6.1492    7.0966    0.0000 C   0  0  0  0  0  0  0  0  0  0  0  0
   -5.6586    8.5141    0.0000 C   0  0  0  0  0  0  0  0  0  0  0  0
   -7.6221    6.8127    0.0000 C   0  0  0  0  0  0  0  0  0  0  0  0
   -6.2020    4.8773    0.0000 C   0  0  0  0  0  0  0  0  0  0  0  0
   -7.3811    5.8046    0.0000 O   0  0  0  0  0  0  0  0  0  0  0  0
   -7.0130    3.6154    0.0000 N   0  0  0  0  0  0  0  0  0  0  0  0
   -8.3462    4.3028    0.0000 C   0  0  0  0  0  0  0  0  0  0  0  0
   -7.5705    2.2229    0.0000 C   0  0  0  0  0  0  0  0  0  0  0  0
   -9.0097    2.6455    0.0000 C   0  0  0  0  0  0  0  0  0  0  0  0
   -9.3634    4.1032    0.0000 C   0  0  0  0  0  0  0  0  0  0  0  0
  -10.8026    4.5258    0.0000 C   0  0  0  0  0  0  0  0  0  0  0  0
   -8.2778    5.1383    0.0000 C   0  0  0  0  0  0  0  0  0  0  0  0
   -7.8544    0.7500    0.0000 C   0  0  0  0  0  0  0  0  0  0  0  0
   -9.3476    0.8926    0.0000 O   0  0  0  0  0  0  0  0  0  0  0  0
   -7.8544   -0.7500    0.0000 N   0  0  0  0  0  0  0  0  0  0  0  0
   -7.5705   -2.2229    0.0000 C   0  0  0  0  0  0  0  0  0  0  0  0
   -9.0097   -2.6455    0.0000 C   0  0  0  0  0  0  0  0  0  0  0  0
   -7.0130   -3.6154    0.0000 C   0  0  0  0  0  0  0  0  0  0  0  0
   -8.3462   -4.3028    0.0000 O   0  0  0  0  0  0  0  0  0  0  0  0
   -6.2020   -4.8773    0.0000 N   0  0  0  0  0  0  0  0  0  0  0  0
   -5.1669   -5.9629    0.0000 C   0  0  0  0  0  0  0  0  0  0  0  0
   -6.1492   -7.0966    0.0000 C   0  0  0  0  0  0  0  0  0  0  0  0
   -3.9450   -6.8330    0.0000 C   0  0  0  0  0  0  0  0  0  0  0  0
   -4.6950   -8.1320    0.0000 O   0  0  0  0  0  0  0  0  0  0  0  0
   -2.5806   -7.4561    0.0000 N   0  0  0  0  0  0  0  0  0  0  0  0
   -3.0712   -8.8736    0.0000 C   0  0  0  0  0  0  0  0  0  0  0  0
   -1.1229   -7.8098    0.0000 C   0  0  0  0  0  0  0  0  0  0  0  0
   -1.3363   -9.2945    0.0000 C   0  0  0  0  0  0  0  0  0  0  0  0
   -2.7289   -9.8520    0.0000 C   0  0  0  0  0  0  0  0  0  0  0  0
   -2.9424  -11.3367    0.0000 C   0  0  0  0  0  0  0  0  0  0  0  0
   -3.9080   -8.9248    0.0000 C   0  0  0  0  0  0  0  0  0  0  0  0
    0.3754   -7.8811    0.0000 C   0  0  0  0  0  0  0  0  0  0  0  0
    0.4468   -9.3794    0.0000 O   0  0  0  0  0  0  0  0  0  0  0  0
    1.8602   -7.6677    0.0000 N   0  0  0  0  0  0  0  0  0  0  0  0
    2.2138   -9.1254    0.0000 C   0  0  0  0  0  0  0  0  0  0  0  0
    3.2777   -7.1771    0.0000 C   0  0  0  0  0  0  0  0  0  0  0  0
    3.9008   -8.5415    0.0000 C   0  0  0  0  0  0  0  0  0  0  0  0
    3.0307   -9.7634    0.0000 C   0  0  0  0  0  0  0  0  0  0  0  0
    3.6538  -11.1278    0.0000 C   0  0  0  0  0  0  0  0  0  0  0  0
    1.5375   -9.6208    0.0000 C   0  0  0  0  0  0  0  0  0  0  0  0
    4.5767   -6.4271    0.0000 C   0  0  0  0  0  0  0  0  0  0  0  0
    5.4468   -7.6489    0.0000 O   0  0  0  0  0  0  0  0  0  0  0  0
    5.7103   -5.4448    0.0000 N   0  0  0  0  0  0  0  0  0  0  0  0
    6.7959   -6.4799    0.0000 C   0  0  0  0  0  0  0  0  0  0  0  0
    6.6376   -4.2657    0.0000 C   0  0  0  0  0  0  0  0  0  0  0  0
    7.8994   -5.0767    0.0000 C   0  0  0  0  0  0  0  0  0  0  0  0
    7.8281   -6.5750    0.0000 C   0  0  0  0  0  0  0  0  0  0  0  0
    9.2327   -4.3893    0.0000 C   0  0  0  0  0  0  0  0  0  0  0  0
    7.3249   -2.9324    0.0000 C   0  0  0  0  0  0  0  0  0  0  0  0
    8.7175   -3.4899    0.0000 O   0  0  0  0  0  0  0  0  0  0  0  0
    7.7475   -1.4932    0.0000 N   0  0  0  0  0  0  0  0  0  0  0  0
    9.2204   -1.7771    0.0000 C   0  0  0  0  0  0  0  0  0  0  0  0
  1  2  1  0
  2  3  2  0
  3  4  1  0
  4  5  1  0
  5  6  1  6
  5  7  1  0
  7  8  1  6
  7  9  1  0
  9 10  1  6
 10 11  2  0
 10 12  1  0
 12 13  1  0
 13 14  1  6
 14 15  1  0
 13 16  1  0
 16 17  2  0
 16 18  1  0
 18 19  1  0
 18 20  1  0
 20 21  1  1
 20 22  1  0
 22 23  2  0
 22 24  1  0
 24 25  1  0
 24 26  1  0
 26 27  1  0
 27 28  1  1
 27 29  1  0
 29 30  1  0
 30 31  1  0
 26 32  1  6
 32 33  2  0
 32 34  1  0
 34 35  1  0
 35 36  1  6
 36 37  1  0
 36 38  1  0
 35 39  1  0
 39 40  2  0
 39 41  1  0
 41 42  1  0
 41 43  1  0
 43 44  1  6
 44 45  1  0
 45 46  1  0
 45 47  1  0
 43 48  1  0
 48 49  2  0
 48 50  1  0
 50 51  1  0
 51 52  1  6
 51 53  1  0
 53 54  2  0
 53 55  1  0
 55 56  1  0
 56 57  1  1
 56 58  1  0
 58 59  2  0
 58 60  1  0
 60 61  1  0
 60 62  1  0
 62 63  1  6
 63 64  1  0
 64 65  1  0
 64 66  1  0
 62 67  1  0
 67 68  2  0
 67 69  1  0
 69 70  1  0
 69 71  1  0
 71 72  1  6
 72 73  1  0
 73 74  1  0
 73 75  1  0
 71 76  1  0
 76 77  2  0
 76 78  1  0
 78 79  1  0
 78 80  1  0
 80 81  1  6
 81 82  1  0
 81 83  1  0
 80 84  1  0
 84 85  2  0
 84 86  1  0
 86 87  1  0
 86  9  1  0
M  END
>  <assay_description>  (33) 
Inhibition of OATP1B1 (unknown origin) expressed in CHO cells using 8-fluorescein-cAMP substrate by fluorescent photometry

>  <molecule_pref_name>  (33) 
None

>  <canonical_smiles>  (33) 
C/C=C/C[C@@H](C)[C@@H](O)[C@H]1C(=O)N[C@@H](CC)C(=O)N(C)[C@H](C)C(=O)N(C)[C@@H]([C@H](C)COC)C(=O)N[C@@H](C(C)C)C(=O)N(C)[C@@H](CC(C)C)C(=O)N[C@@H](C)C(=O)N[C@H](C)C(=O)N(C)[C@@H](CC(C)C)C(=O)N(C)[C@@H](CC(C)C)C(=O)N(C)[C@@H](C(C)C)C(=O)N1C

>  <pchembl_value>  (33) 
5.55

>  <standard_type>  (33) 
IC50

>  <standard_relation>  (33) 
=

>  <standard_value>  (33) 
2800.0

>  <standard_units>  (33) 
nM

>  <target_pref_name>  (33) 
Solute carrier organic anion transporter family member 1B1

>  <target_organism>  (33) 
Homo sapiens

$$$$
CHEMBL3344493
     RDKit          2D

 87 87  0  0  0  0  0  0  0  0999 V2000
   12.3901   -5.1962    0.0000 C   0  0  0  0  0  0  0  0  0  0  0  0
   11.6401   -3.8971    0.0000 C   0  0  0  0  0  0  0  0  0  0  0  0
   10.1401   -3.8971    0.0000 C   0  0  0  0  0  0  0  0  0  0  0  0
    9.3901   -2.5981    0.0000 C   0  0  0  0  0  0  0  0  0  0  0  0
   10.1401   -1.2990    0.0000 C   0  0  0  0  0  0  0  0  0  0  0  0
   11.6401   -1.2990    0.0000 C   0  0  0  0  0  0  0  0  0  0  0  0
    9.3901    0.0000    0.0000 C   0  0  0  0  0  0  0  0  0  0  0  0
   10.1401    1.2990    0.0000 O   0  0  0  0  0  0  0  0  0  0  0  0
    7.8901    0.0000    0.0000 C   0  0  0  0  0  0  0  0  0  0  0  0
    7.7475    1.4932    0.0000 C   0  0  0  0  0  0  0  0  0  0  0  0
    9.2204    1.7771    0.0000 O   0  0  0  0  0  0  0  0  0  0  0  0
    7.3249    2.9324    0.0000 N   0  0  0  0  0  0  0  0  0  0  0  0
    6.6376    4.2657    0.0000 C   0  0  0  0  0  0  0  0  0  0  0  0
    7.8994    5.0767    0.0000 C   0  0  0  0  0  0  0  0  0  0  0  0
    9.2327    4.3893    0.0000 C   0  0  0  0  0  0  0  0  0  0  0  0
    5.7103    5.4448    0.0000 C   0  0  0  0  0  0  0  0  0  0  0  0
    6.7959    6.4799    0.0000 O   0  0  0  0  0  0  0  0  0  0  0  0
    4.5767    6.4271    0.0000 N   0  0  0  0  0  0  0  0  0  0  0  0
    5.4468    7.6489    0.0000 C   0  0  0  0  0  0  0  0  0  0  0  0
    3.2777    7.1771    0.0000 C   0  0  0  0  0  0  0  0  0  0  0  0
    3.9008    8.5415    0.0000 C   0  0  0  0  0  0  0  0  0  0  0  0
    1.8602    7.6677    0.0000 C   0  0  0  0  0  0  0  0  0  0  0  0
    2.2138    9.1254    0.0000 O   0  0  0  0  0  0  0  0  0  0  0  0
    0.3754    7.8811    0.0000 N   0  0  0  0  0  0  0  0  0  0  0  0
    0.4468    9.3794    0.0000 C   0  0  0  0  0  0  0  0  0  0  0  0
   -1.1229    7.8098    0.0000 C   0  0  0  0  0  0  0  0  0  0  0  0
   -1.3363    9.2945    0.0000 C   0  0  0  0  0  0  0  0  0  0  0  0
   -0.1573   10.2217    0.0000 C   0  0  0  0  0  0  0  0  0  0  0  0
   -2.7289    9.8520    0.0000 C   0  0  0  0  0  0  0  0  0  0  0  0
   -2.9424   11.3367    0.0000 C   0  0  0  0  0  0  0  0  0  0  0  0
   -3.1558   12.8215    0.0000 N   0  0  0  0  0  0  0  0  0  0  0  0
   -2.5806    7.4561    0.0000 C   0  0  0  0  0  0  0  0  0  0  0  0
   -3.0712    8.8736    0.0000 O   0  0  0  0  0  0  0  0  0  0  0  0
   -3.9450    6.8330    0.0000 N   0  0  0  0  0  0  0  0  0  0  0  0
   -5.1669    5.9629    0.0000 C   0  0  0  0  0  0  0  0  0  0  0  0
   -6.1492    7.0966    0.0000 C   0  0  0  0  0  0  0  0  0  0  0  0
   -5.6586    8.5141    0.0000 C   0  0  0  0  0  0  0  0  0  0  0  0
   -7.6221    6.8127    0.0000 C   0  0  0  0  0  0  0  0  0  0  0  0
   -6.2020    4.8773    0.0000 C   0  0  0  0  0  0  0  0  0  0  0  0
   -7.3811    5.8046    0.0000 O   0  0  0  0  0  0  0  0  0  0  0  0
   -7.0130    3.6154    0.0000 N   0  0  0  0  0  0  0  0  0  0  0  0
   -8.3462    4.3028    0.0000 C   0  0  0  0  0  0  0  0  0  0  0  0
   -7.5705    2.2229    0.0000 C   0  0  0  0  0  0  0  0  0  0  0  0
   -9.0097    2.6455    0.0000 C   0  0  0  0  0  0  0  0  0  0  0  0
   -9.3634    4.1032    0.0000 C   0  0  0  0  0  0  0  0  0  0  0  0
  -10.8026    4.5258    0.0000 C   0  0  0  0  0  0  0  0  0  0  0  0
   -8.2778    5.1383    0.0000 C   0  0  0  0  0  0  0  0  0  0  0  0
   -7.8544    0.7500    0.0000 C   0  0  0  0  0  0  0  0  0  0  0  0
   -9.3476    0.8926    0.0000 O   0  0  0  0  0  0  0  0  0  0  0  0
   -7.8544   -0.7500    0.0000 N   0  0  0  0  0  0  0  0  0  0  0  0
   -7.5705   -2.2229    0.0000 C   0  0  0  0  0  0  0  0  0  0  0  0
   -9.0097   -2.6455    0.0000 C   0  0  0  0  0  0  0  0  0  0  0  0
   -7.0130   -3.6154    0.0000 C   0  0  0  0  0  0  0  0  0  0  0  0
   -8.3462   -4.3028    0.0000 O   0  0  0  0  0  0  0  0  0  0  0  0
   -6.2020   -4.8773    0.0000 N   0  0  0  0  0  0  0  0  0  0  0  0
   -5.1669   -5.9629    0.0000 C   0  0  0  0  0  0  0  0  0  0  0  0
   -6.1492   -7.0966    0.0000 C   0  0  0  0  0  0  0  0  0  0  0  0
   -3.9450   -6.8330    0.0000 C   0  0  0  0  0  0  0  0  0  0  0  0
   -4.6950   -8.1320    0.0000 O   0  0  0  0  0  0  0  0  0  0  0  0
   -2.5806   -7.4561    0.0000 N   0  0  0  0  0  0  0  0  0  0  0  0
   -3.0712   -8.8736    0.0000 C   0  0  0  0  0  0  0  0  0  0  0  0
   -1.1229   -7.8098    0.0000 C   0  0  0  0  0  0  0  0  0  0  0  0
   -1.3363   -9.2945    0.0000 C   0  0  0  0  0  0  0  0  0  0  0  0
   -2.7289   -9.8520    0.0000 C   0  0  0  0  0  0  0  0  0  0  0  0
   -2.9424  -11.3367    0.0000 C   0  0  0  0  0  0  0  0  0  0  0  0
   -3.9080   -8.9248    0.0000 C   0  0  0  0  0  0  0  0  0  0  0  0
    0.3754   -7.8811    0.0000 C   0  0  0  0  0  0  0  0  0  0  0  0
    0.4468   -9.3794    0.0000 O   0  0  0  0  0  0  0  0  0  0  0  0
    1.8602   -7.6677    0.0000 N   0  0  0  0  0  0  0  0  0  0  0  0
    2.2138   -9.1254    0.0000 C   0  0  0  0  0  0  0  0  0  0  0  0
    3.2777   -7.1771    0.0000 C   0  0  0  0  0  0  0  0  0  0  0  0
    3.9008   -8.5415    0.0000 C   0  0  0  0  0  0  0  0  0  0  0  0
    3.0307   -9.7634    0.0000 C   0  0  0  0  0  0  0  0  0  0  0  0
    3.6538  -11.1278    0.0000 C   0  0  0  0  0  0  0  0  0  0  0  0
    1.5375   -9.6208    0.0000 C   0  0  0  0  0  0  0  0  0  0  0  0
    4.5767   -6.4271    0.0000 C   0  0  0  0  0  0  0  0  0  0  0  0
    5.4468   -7.6489    0.0000 O   0  0  0  0  0  0  0  0  0  0  0  0
    5.7103   -5.4448    0.0000 N   0  0  0  0  0  0  0  0  0  0  0  0
    6.7959   -6.4799    0.0000 C   0  0  0  0  0  0  0  0  0  0  0  0
    6.6376   -4.2657    0.0000 C   0  0  0  0  0  0  0  0  0  0  0  0
    7.8994   -5.0767    0.0000 C   0  0  0  0  0  0  0  0  0  0  0  0
    7.8281   -6.5750    0.0000 C   0  0  0  0  0  0  0  0  0  0  0  0
    9.2327   -4.3893    0.0000 C   0  0  0  0  0  0  0  0  0  0  0  0
    7.3249   -2.9324    0.0000 C   0  0  0  0  0  0  0  0  0  0  0  0
    8.7175   -3.4899    0.0000 O   0  0  0  0  0  0  0  0  0  0  0  0
    7.7475   -1.4932    0.0000 N   0  0  0  0  0  0  0  0  0  0  0  0
    9.2204   -1.7771    0.0000 C   0  0  0  0  0  0  0  0  0  0  0  0
  1  2  1  0
  2  3  2  0
  3  4  1  0
  4  5  1  0
  5  6  1  6
  5  7  1  0
  7  8  1  6
  7  9  1  0
  9 10  1  6
 10 11  2  0
 10 12  1  0
 12 13  1  0
 13 14  1  6
 14 15  1  0
 13 16  1  0
 16 17  2  0
 16 18  1  0
 18 19  1  0
 18 20  1  0
 20 21  1  1
 20 22  1  0
 22 23  2  0
 22 24  1  0
 24 25  1  0
 24 26  1  0
 26 27  1  0
 27 28  1  1
 27 29  1  0
 29 30  1  0
 30 31  3  0
 26 32  1  6
 32 33  2  0
 32 34  1  0
 34 35  1  0
 35 36  1  6
 36 37  1  0
 36 38  1  0
 35 39  1  0
 39 40  2  0
 39 41  1  0
 41 42  1  0
 41 43  1  0
 43 44  1  6
 44 45  1  0
 45 46  1  0
 45 47  1  0
 43 48  1  0
 48 49  2  0
 48 50  1  0
 50 51  1  0
 51 52  1  6
 51 53  1  0
 53 54  2  0
 53 55  1  0
 55 56  1  0
 56 57  1  1
 56 58  1  0
 58 59  2  0
 58 60  1  0
 60 61  1  0
 60 62  1  0
 62 63  1  6
 63 64  1  0
 64 65  1  0
 64 66  1  0
 62 67  1  0
 67 68  2  0
 67 69  1  0
 69 70  1  0
 69 71  1  0
 71 72  1  6
 72 73  1  0
 73 74  1  0
 73 75  1  0
 71 76  1  0
 76 77  2  0
 76 78  1  0
 78 79  1  0
 78 80  1  0
 80 81  1  6
 81 82  1  0
 81 83  1  0
 80 84  1  0
 84 85  2  0
 84 86  1  0
 86 87  1  0
 86  9  1  0
M  END
>  <assay_description>  (34) 
Inhibition of OATP1B1 (unknown origin) expressed in CHO cells using 8-fluorescein-cAMP substrate by fluorescent photometry

>  <molecule_pref_name>  (34) 
None

>  <canonical_smiles>  (34) 
C/C=C/C[C@@H](C)[C@@H](O)[C@H]1C(=O)N[C@@H](CC)C(=O)N(C)[C@H](C)C(=O)N(C)[C@@H]([C@H](C)CC#N)C(=O)N[C@@H](C(C)C)C(=O)N(C)[C@@H](CC(C)C)C(=O)N[C@@H](C)C(=O)N[C@H](C)C(=O)N(C)[C@@H](CC(C)C)C(=O)N(C)[C@@H](CC(C)C)C(=O)N(C)[C@@H](C(C)C)C(=O)N1C

>  <pchembl_value>  (34) 
6.00

>  <standard_type>  (34) 
IC50

>  <standard_relation>  (34) 
=

>  <standard_value>  (34) 
1000.0

>  <standard_units>  (34) 
nM

>  <target_pref_name>  (34) 
Solute carrier organic anion transporter family member 1B1

>  <target_organism>  (34) 
Homo sapiens

$$$$
CHEMBL1651956
     RDKit          2D

 86 86  0  0  0  0  0  0  0  0999 V2000
   12.3901   -5.1962    0.0000 C   0  0  0  0  0  0  0  0  0  0  0  0
   11.6401   -3.8971    0.0000 C   0  0  0  0  0  0  0  0  0  0  0  0
   10.1401   -3.8971    0.0000 C   0  0  0  0  0  0  0  0  0  0  0  0
    9.3901   -2.5981    0.0000 C   0  0  0  0  0  0  0  0  0  0  0  0
   10.1401   -1.2990    0.0000 C   0  0  0  0  0  0  0  0  0  0  0  0
   11.6401   -1.2990    0.0000 C   0  0  0  0  0  0  0  0  0  0  0  0
    9.3901    0.0000    0.0000 C   0  0  0  0  0  0  0  0  0  0  0  0
   10.1401    1.2990    0.0000 O   0  0  0  0  0  0  0  0  0  0  0  0
    7.8901    0.0000    0.0000 C   0  0  0  0  0  0  0  0  0  0  0  0
    7.7475    1.4932    0.0000 C   0  0  0  0  0  0  0  0  0  0  0  0
    9.2204    1.7771    0.0000 O   0  0  0  0  0  0  0  0  0  0  0  0
    7.3249    2.9324    0.0000 N   0  0  0  0  0  0  0  0  0  0  0  0
    6.6376    4.2657    0.0000 C   0  0  0  0  0  0  0  0  0  0  0  0
    7.8994    5.0767    0.0000 C   0  0  0  0  0  0  0  0  0  0  0  0
    9.2327    4.3893    0.0000 C   0  0  0  0  0  0  0  0  0  0  0  0
    5.7103    5.4448    0.0000 C   0  0  0  0  0  0  0  0  0  0  0  0
    6.7959    6.4799    0.0000 O   0  0  0  0  0  0  0  0  0  0  0  0
    4.5767    6.4271    0.0000 N   0  0  0  0  0  0  0  0  0  0  0  0
    5.4468    7.6489    0.0000 C   0  0  0  0  0  0  0  0  0  0  0  0
    3.2777    7.1771    0.0000 C   0  0  0  0  0  0  0  0  0  0  0  0
    3.9008    8.5415    0.0000 C   0  0  0  0  0  0  0  0  0  0  0  0
    1.8602    7.6677    0.0000 C   0  0  0  0  0  0  0  0  0  0  0  0
    2.2138    9.1254    0.0000 O   0  0  0  0  0  0  0  0  0  0  0  0
    0.3754    7.8811    0.0000 N   0  0  0  0  0  0  0  0  0  0  0  0
    0.4468    9.3794    0.0000 C   0  0  0  0  0  0  0  0  0  0  0  0
    1.7801   10.0668    0.0000 C   0  0  0  0  0  0  0  0  0  0  0  0
   -1.1229    7.8098    0.0000 C   0  0  0  0  0  0  0  0  0  0  0  0
   -1.3363    9.2945    0.0000 C   0  0  0  0  0  0  0  0  0  0  0  0
   -0.1573   10.2217    0.0000 C   0  0  0  0  0  0  0  0  0  0  0  0
   -2.7289    9.8520    0.0000 C   0  0  0  0  0  0  0  0  0  0  0  0
   -2.5806    7.4561    0.0000 C   0  0  0  0  0  0  0  0  0  0  0  0
   -3.0712    8.8736    0.0000 O   0  0  0  0  0  0  0  0  0  0  0  0
   -3.9450    6.8330    0.0000 N   0  0  0  0  0  0  0  0  0  0  0  0
   -5.1669    5.9629    0.0000 C   0  0  0  0  0  0  0  0  0  0  0  0
   -6.1492    7.0966    0.0000 C   0  0  0  0  0  0  0  0  0  0  0  0
   -5.6586    8.5141    0.0000 C   0  0  0  0  0  0  0  0  0  0  0  0
   -7.6221    6.8127    0.0000 C   0  0  0  0  0  0  0  0  0  0  0  0
   -6.2020    4.8773    0.0000 C   0  0  0  0  0  0  0  0  0  0  0  0
   -7.3811    5.8046    0.0000 O   0  0  0  0  0  0  0  0  0  0  0  0
   -7.0130    3.6154    0.0000 N   0  0  0  0  0  0  0  0  0  0  0  0
   -8.3462    4.3028    0.0000 C   0  0  0  0  0  0  0  0  0  0  0  0
   -7.5705    2.2229    0.0000 C   0  0  0  0  0  0  0  0  0  0  0  0
   -9.0097    2.6455    0.0000 C   0  0  0  0  0  0  0  0  0  0  0  0
   -9.3634    4.1032    0.0000 C   0  0  0  0  0  0  0  0  0  0  0  0
  -10.8026    4.5258    0.0000 C   0  0  0  0  0  0  0  0  0  0  0  0
   -8.2778    5.1383    0.0000 C   0  0  0  0  0  0  0  0  0  0  0  0
   -7.8544    0.7500    0.0000 C   0  0  0  0  0  0  0  0  0  0  0  0
   -9.3476    0.8926    0.0000 O   0  0  0  0  0  0  0  0  0  0  0  0
   -7.8544   -0.7500    0.0000 N   0  0  0  0  0  0  0  0  0  0  0  0
   -7.5705   -2.2229    0.0000 C   0  0  0  0  0  0  0  0  0  0  0  0
   -9.0097   -2.6455    0.0000 C   0  0  0  0  0  0  0  0  0  0  0  0
   -7.0130   -3.6154    0.0000 C   0  0  0  0  0  0  0  0  0  0  0  0
   -8.3462   -4.3028    0.0000 O   0  0  0  0  0  0  0  0  0  0  0  0
   -6.2020   -4.8773    0.0000 N   0  0  0  0  0  0  0  0  0  0  0  0
   -5.1669   -5.9629    0.0000 C   0  0  0  0  0  0  0  0  0  0  0  0
   -6.1492   -7.0966    0.0000 C   0  0  0  0  0  0  0  0  0  0  0  0
   -3.9450   -6.8330    0.0000 C   0  0  0  0  0  0  0  0  0  0  0  0
   -4.6950   -8.1320    0.0000 O   0  0  0  0  0  0  0  0  0  0  0  0
   -2.5806   -7.4561    0.0000 N   0  0  0  0  0  0  0  0  0  0  0  0
   -3.0712   -8.8736    0.0000 C   0  0  0  0  0  0  0  0  0  0  0  0
   -1.1229   -7.8098    0.0000 C   0  0  0  0  0  0  0  0  0  0  0  0
   -1.3363   -9.2945    0.0000 C   0  0  0  0  0  0  0  0  0  0  0  0
   -2.7289   -9.8520    0.0000 C   0  0  0  0  0  0  0  0  0  0  0  0
   -2.9424  -11.3367    0.0000 C   0  0  0  0  0  0  0  0  0  0  0  0
   -3.9080   -8.9248    0.0000 C   0  0  0  0  0  0  0  0  0  0  0  0
    0.3754   -7.8811    0.0000 C   0  0  0  0  0  0  0  0  0  0  0  0
    0.4468   -9.3794    0.0000 O   0  0  0  0  0  0  0  0  0  0  0  0
    1.8602   -7.6677    0.0000 N   0  0  0  0  0  0  0  0  0  0  0  0
    2.2138   -9.1254    0.0000 C   0  0  0  0  0  0  0  0  0  0  0  0
    3.2777   -7.1771    0.0000 C   0  0  0  0  0  0  0  0  0  0  0  0
    3.9008   -8.5415    0.0000 C   0  0  0  0  0  0  0  0  0  0  0  0
    3.0307   -9.7634    0.0000 C   0  0  0  0  0  0  0  0  0  0  0  0
    3.6538  -11.1278    0.0000 C   0  0  0  0  0  0  0  0  0  0  0  0
    1.5375   -9.6208    0.0000 C   0  0  0  0  0  0  0  0  0  0  0  0
    4.5767   -6.4271    0.0000 C   0  0  0  0  0  0  0  0  0  0  0  0
    5.4468   -7.6489    0.0000 O   0  0  0  0  0  0  0  0  0  0  0  0
    5.7103   -5.4448    0.0000 N   0  0  0  0  0  0  0  0  0  0  0  0
    6.7959   -6.4799    0.0000 C   0  0  0  0  0  0  0  0  0  0  0  0
    6.6376   -4.2657    0.0000 C   0  0  0  0  0  0  0  0  0  0  0  0
    7.8994   -5.0767    0.0000 C   0  0  0  0  0  0  0  0  0  0  0  0
    7.8281   -6.5750    0.0000 C   0  0  0  0  0  0  0  0  0  0  0  0
    9.2327   -4.3893    0.0000 C   0  0  0  0  0  0  0  0  0  0  0  0
    7.3249   -2.9324    0.0000 C   0  0  0  0  0  0  0  0  0  0  0  0
    8.7175   -3.4899    0.0000 O   0  0  0  0  0  0  0  0  0  0  0  0
    7.7475   -1.4932    0.0000 N   0  0  0  0  0  0  0  0  0  0  0  0
    9.2204   -1.7771    0.0000 C   0  0  0  0  0  0  0  0  0  0  0  0
  1  2  1  0
  2  3  2  0
  3  4  1  0
  4  5  1  0
  5  6  1  6
  5  7  1  0
  7  8  1  6
  7  9  1  0
  9 10  1  6
 10 11  2  0
 10 12  1  0
 12 13  1  0
 13 14  1  6
 14 15  1  0
 13 16  1  0
 16 17  2  0
 16 18  1  0
 18 19  1  0
 18 20  1  0
 20 21  1  1
 20 22  1  0
 22 23  2  0
 22 24  1  0
 24 25  1  0
 25 26  1  0
 24 27  1  0
 27 28  1  6
 28 29  1  0
 28 30  1  0
 27 31  1  0
 31 32  2  0
 31 33  1  0
 33 34  1  0
 34 35  1  6
 35 36  1  0
 35 37  1  0
 34 38  1  0
 38 39  2  0
 38 40  1  0
 40 41  1  0
 40 42  1  0
 42 43  1  6
 43 44  1  0
 44 45  1  0
 44 46  1  0
 42 47  1  0
 47 48  2  0
 47 49  1  0
 49 50  1  0
 50 51  1  6
 50 52  1  0
 52 53  2  0
 52 54  1  0
 54 55  1  0
 55 56  1  1
 55 57  1  0
 57 58  2  0
 57 59  1  0
 59 60  1  0
 59 61  1  0
 61 62  1  6
 62 63  1  0
 63 64  1  0
 63 65  1  0
 61 66  1  0
 66 67  2  0
 66 68  1  0
 68 69  1  0
 68 70  1  0
 70 71  1  6
 71 72  1  0
 72 73  1  0
 72 74  1  0
 70 75  1  0
 75 76  2  0
 75 77  1  0
 77 78  1  0
 77 79  1  0
 79 80  1  6
 80 81  1  0
 80 82  1  0
 79 83  1  0
 83 84  2  0
 83 85  1  0
 85 86  1  0
 85  9  1  0
M  END
>  <assay_description>  (35) 
Inhibition of OATP1B1 (unknown origin) expressed in CHO cells using 8-fluorescein-cAMP substrate by fluorescent photometry

>  <molecule_pref_name>  (35) 
ALISPORIVIR

>  <canonical_smiles>  (35) 
C/C=C/C[C@@H](C)[C@@H](O)[C@H]1C(=O)N[C@@H](CC)C(=O)N(C)[C@H](C)C(=O)N(CC)[C@@H](C(C)C)C(=O)N[C@@H](C(C)C)C(=O)N(C)[C@@H](CC(C)C)C(=O)N[C@@H](C)C(=O)N[C@H](C)C(=O)N(C)[C@@H](CC(C)C)C(=O)N(C)[C@@H](CC(C)C)C(=O)N(C)[C@@H](C(C)C)C(=O)N1C

>  <pchembl_value>  (35) 
6.10

>  <standard_type>  (35) 
IC50

>  <standard_relation>  (35) 
=

>  <standard_value>  (35) 
800.0

>  <standard_units>  (35) 
nM

>  <target_pref_name>  (35) 
Solute carrier organic anion transporter family member 1B1

>  <target_organism>  (35) 
Homo sapiens

$$$$
CHEMBL1651956
     RDKit          2D

 86 86  0  0  0  0  0  0  0  0999 V2000
   12.3901   -5.1962    0.0000 C   0  0  0  0  0  0  0  0  0  0  0  0
   11.6401   -3.8971    0.0000 C   0  0  0  0  0  0  0  0  0  0  0  0
   10.1401   -3.8971    0.0000 C   0  0  0  0  0  0  0  0  0  0  0  0
    9.3901   -2.5981    0.0000 C   0  0  0  0  0  0  0  0  0  0  0  0
   10.1401   -1.2990    0.0000 C   0  0  0  0  0  0  0  0  0  0  0  0
   11.6401   -1.2990    0.0000 C   0  0  0  0  0  0  0  0  0  0  0  0
    9.3901    0.0000    0.0000 C   0  0  0  0  0  0  0  0  0  0  0  0
   10.1401    1.2990    0.0000 O   0  0  0  0  0  0  0  0  0  0  0  0
    7.8901    0.0000    0.0000 C   0  0  0  0  0  0  0  0  0  0  0  0
    7.7475    1.4932    0.0000 C   0  0  0  0  0  0  0  0  0  0  0  0
    9.2204    1.7771    0.0000 O   0  0  0  0  0  0  0  0  0  0  0  0
    7.3249    2.9324    0.0000 N   0  0  0  0  0  0  0  0  0  0  0  0
    6.6376    4.2657    0.0000 C   0  0  0  0  0  0  0  0  0  0  0  0
    7.8994    5.0767    0.0000 C   0  0  0  0  0  0  0  0  0  0  0  0
    9.2327    4.3893    0.0000 C   0  0  0  0  0  0  0  0  0  0  0  0
    5.7103    5.4448    0.0000 C   0  0  0  0  0  0  0  0  0  0  0  0
    6.7959    6.4799    0.0000 O   0  0  0  0  0  0  0  0  0  0  0  0
    4.5767    6.4271    0.0000 N   0  0  0  0  0  0  0  0  0  0  0  0
    5.4468    7.6489    0.0000 C   0  0  0  0  0  0  0  0  0  0  0  0
    3.2777    7.1771    0.0000 C   0  0  0  0  0  0  0  0  0  0  0  0
    3.9008    8.5415    0.0000 C   0  0  0  0  0  0  0  0  0  0  0  0
    1.8602    7.6677    0.0000 C   0  0  0  0  0  0  0  0  0  0  0  0
    2.2138    9.1254    0.0000 O   0  0  0  0  0  0  0  0  0  0  0  0
    0.3754    7.8811    0.0000 N   0  0  0  0  0  0  0  0  0  0  0  0
    0.4468    9.3794    0.0000 C   0  0  0  0  0  0  0  0  0  0  0  0
    1.7801   10.0668    0.0000 C   0  0  0  0  0  0  0  0  0  0  0  0
   -1.1229    7.8098    0.0000 C   0  0  0  0  0  0  0  0  0  0  0  0
   -1.3363    9.2945    0.0000 C   0  0  0  0  0  0  0  0  0  0  0  0
   -0.1573   10.2217    0.0000 C   0  0  0  0  0  0  0  0  0  0  0  0
   -2.7289    9.8520    0.0000 C   0  0  0  0  0  0  0  0  0  0  0  0
   -2.5806    7.4561    0.0000 C   0  0  0  0  0  0  0  0  0  0  0  0
   -3.0712    8.8736    0.0000 O   0  0  0  0  0  0  0  0  0  0  0  0
   -3.9450    6.8330    0.0000 N   0  0  0  0  0  0  0  0  0  0  0  0
   -5.1669    5.9629    0.0000 C   0  0  0  0  0  0  0  0  0  0  0  0
   -6.1492    7.0966    0.0000 C   0  0  0  0  0  0  0  0  0  0  0  0
   -5.6586    8.5141    0.0000 C   0  0  0  0  0  0  0  0  0  0  0  0
   -7.6221    6.8127    0.0000 C   0  0  0  0  0  0  0  0  0  0  0  0
   -6.2020    4.8773    0.0000 C   0  0  0  0  0  0  0  0  0  0  0  0
   -7.3811    5.8046    0.0000 O   0  0  0  0  0  0  0  0  0  0  0  0
   -7.0130    3.6154    0.0000 N   0  0  0  0  0  0  0  0  0  0  0  0
   -8.3462    4.3028    0.0000 C   0  0  0  0  0  0  0  0  0  0  0  0
   -7.5705    2.2229    0.0000 C   0  0  0  0  0  0  0  0  0  0  0  0
   -9.0097    2.6455    0.0000 C   0  0  0  0  0  0  0  0  0  0  0  0
   -9.3634    4.1032    0.0000 C   0  0  0  0  0  0  0  0  0  0  0  0
  -10.8026    4.5258    0.0000 C   0  0  0  0  0  0  0  0  0  0  0  0
   -8.2778    5.1383    0.0000 C   0  0  0  0  0  0  0  0  0  0  0  0
   -7.8544    0.7500    0.0000 C   0  0  0  0  0  0  0  0  0  0  0  0
   -9.3476    0.8926    0.0000 O   0  0  0  0  0  0  0  0  0  0  0  0
   -7.8544   -0.7500    0.0000 N   0  0  0  0  0  0  0  0  0  0  0  0
   -7.5705   -2.2229    0.0000 C   0  0  0  0  0  0  0  0  0  0  0  0
   -9.0097   -2.6455    0.0000 C   0  0  0  0  0  0  0  0  0  0  0  0
   -7.0130   -3.6154    0.0000 C   0  0  0  0  0  0  0  0  0  0  0  0
   -8.3462   -4.3028    0.0000 O   0  0  0  0  0  0  0  0  0  0  0  0
   -6.2020   -4.8773    0.0000 N   0  0  0  0  0  0  0  0  0  0  0  0
   -5.1669   -5.9629    0.0000 C   0  0  0  0  0  0  0  0  0  0  0  0
   -6.1492   -7.0966    0.0000 C   0  0  0  0  0  0  0  0  0  0  0  0
   -3.9450   -6.8330    0.0000 C   0  0  0  0  0  0  0  0  0  0  0  0
   -4.6950   -8.1320    0.0000 O   0  0  0  0  0  0  0  0  0  0  0  0
   -2.5806   -7.4561    0.0000 N   0  0  0  0  0  0  0  0  0  0  0  0
   -3.0712   -8.8736    0.0000 C   0  0  0  0  0  0  0  0  0  0  0  0
   -1.1229   -7.8098    0.0000 C   0  0  0  0  0  0  0  0  0  0  0  0
   -1.3363   -9.2945    0.0000 C   0  0  0  0  0  0  0  0  0  0  0  0
   -2.7289   -9.8520    0.0000 C   0  0  0  0  0  0  0  0  0  0  0  0
   -2.9424  -11.3367    0.0000 C   0  0  0  0  0  0  0  0  0  0  0  0
   -3.9080   -8.9248    0.0000 C   0  0  0  0  0  0  0  0  0  0  0  0
    0.3754   -7.8811    0.0000 C   0  0  0  0  0  0  0  0  0  0  0  0
    0.4468   -9.3794    0.0000 O   0  0  0  0  0  0  0  0  0  0  0  0
    1.8602   -7.6677    0.0000 N   0  0  0  0  0  0  0  0  0  0  0  0
    2.2138   -9.1254    0.0000 C   0  0  0  0  0  0  0  0  0  0  0  0
    3.2777   -7.1771    0.0000 C   0  0  0  0  0  0  0  0  0  0  0  0
    3.9008   -8.5415    0.0000 C   0  0  0  0  0  0  0  0  0  0  0  0
    3.0307   -9.7634    0.0000 C   0  0  0  0  0  0  0  0  0  0  0  0
    3.6538  -11.1278    0.0000 C   0  0  0  0  0  0  0  0  0  0  0  0
    1.5375   -9.6208    0.0000 C   0  0  0  0  0  0  0  0  0  0  0  0
    4.5767   -6.4271    0.0000 C   0  0  0  0  0  0  0  0  0  0  0  0
    5.4468   -7.6489    0.0000 O   0  0  0  0  0  0  0  0  0  0  0  0
    5.7103   -5.4448    0.0000 N   0  0  0  0  0  0  0  0  0  0  0  0
    6.7959   -6.4799    0.0000 C   0  0  0  0  0  0  0  0  0  0  0  0
    6.6376   -4.2657    0.0000 C   0  0  0  0  0  0  0  0  0  0  0  0
    7.8994   -5.0767    0.0000 C   0  0  0  0  0  0  0  0  0  0  0  0
    7.8281   -6.5750    0.0000 C   0  0  0  0  0  0  0  0  0  0  0  0
    9.2327   -4.3893    0.0000 C   0  0  0  0  0  0  0  0  0  0  0  0
    7.3249   -2.9324    0.0000 C   0  0  0  0  0  0  0  0  0  0  0  0
    8.7175   -3.4899    0.0000 O   0  0  0  0  0  0  0  0  0  0  0  0
    7.7475   -1.4932    0.0000 N   0  0  0  0  0  0  0  0  0  0  0  0
    9.2204   -1.7771    0.0000 C   0  0  0  0  0  0  0  0  0  0  0  0
  1  2  1  0
  2  3  2  0
  3  4  1  0
  4  5  1  0
  5  6  1  6
  5  7  1  0
  7  8  1  6
  7  9  1  0
  9 10  1  6
 10 11  2  0
 10 12  1  0
 12 13  1  0
 13 14  1  6
 14 15  1  0
 13 16  1  0
 16 17  2  0
 16 18  1  0
 18 19  1  0
 18 20  1  0
 20 21  1  1
 20 22  1  0
 22 23  2  0
 22 24  1  0
 24 25  1  0
 25 26  1  0
 24 27  1  0
 27 28  1  6
 28 29  1  0
 28 30  1  0
 27 31  1  0
 31 32  2  0
 31 33  1  0
 33 34  1  0
 34 35  1  6
 35 36  1  0
 35 37  1  0
 34 38  1  0
 38 39  2  0
 38 40  1  0
 40 41  1  0
 40 42  1  0
 42 43  1  6
 43 44  1  0
 44 45  1  0
 44 46  1  0
 42 47  1  0
 47 48  2  0
 47 49  1  0
 49 50  1  0
 50 51  1  6
 50 52  1  0
 52 53  2  0
 52 54  1  0
 54 55  1  0
 55 56  1  1
 55 57  1  0
 57 58  2  0
 57 59  1  0
 59 60  1  0
 59 61  1  0
 61 62  1  6
 62 63  1  0
 63 64  1  0
 63 65  1  0
 61 66  1  0
 66 67  2  0
 66 68  1  0
 68 69  1  0
 68 70  1  0
 70 71  1  6
 71 72  1  0
 72 73  1  0
 72 74  1  0
 70 75  1  0
 75 76  2  0
 75 77  1  0
 77 78  1  0
 77 79  1  0
 79 80  1  6
 80 81  1  0
 80 82  1  0
 79 83  1  0
 83 84  2  0
 83 85  1  0
 85 86  1  0
 85  9  1  0
M  END
>  <assay_description>  (36) 
Inhibition of OATP1B1 (unknown origin) expressed in HEK293 cells using [3H]estradiol-17beta-glucuronide substrate

>  <molecule_pref_name>  (36) 
ALISPORIVIR

>  <canonical_smiles>  (36) 
C/C=C/C[C@@H](C)[C@@H](O)[C@H]1C(=O)N[C@@H](CC)C(=O)N(C)[C@H](C)C(=O)N(CC)[C@@H](C(C)C)C(=O)N[C@@H](C(C)C)C(=O)N(C)[C@@H](CC(C)C)C(=O)N[C@@H](C)C(=O)N[C@H](C)C(=O)N(C)[C@@H](CC(C)C)C(=O)N(C)[C@@H](CC(C)C)C(=O)N(C)[C@@H](C(C)C)C(=O)N1C

>  <pchembl_value>  (36) 
6.75

>  <standard_type>  (36) 
IC50

>  <standard_relation>  (36) 
=

>  <standard_value>  (36) 
180.0

>  <standard_units>  (36) 
nM

>  <target_pref_name>  (36) 
Solute carrier organic anion transporter family member 1B1

>  <target_organism>  (36) 
Homo sapiens

$$$$
CHEMBL3344501
     RDKit          2D

 95 96  0  0  0  0  0  0  0  0999 V2000
   12.3901   -5.1962    0.0000 C   0  0  0  0  0  0  0  0  0  0  0  0
   11.6401   -3.8971    0.0000 C   0  0  0  0  0  0  0  0  0  0  0  0
   10.1401   -3.8971    0.0000 C   0  0  0  0  0  0  0  0  0  0  0  0
    9.3901   -2.5981    0.0000 C   0  0  0  0  0  0  0  0  0  0  0  0
   10.1401   -1.2990    0.0000 C   0  0  0  0  0  0  0  0  0  0  0  0
   11.6401   -1.2990    0.0000 C   0  0  0  0  0  0  0  0  0  0  0  0
    9.3901    0.0000    0.0000 C   0  0  0  0  0  0  0  0  0  0  0  0
   10.1401    1.2990    0.0000 O   0  0  0  0  0  0  0  0  0  0  0  0
    7.8901    0.0000    0.0000 C   0  0  0  0  0  0  0  0  0  0  0  0
    7.7475    1.4932    0.0000 C   0  0  0  0  0  0  0  0  0  0  0  0
    9.2204    1.7771    0.0000 O   0  0  0  0  0  0  0  0  0  0  0  0
    7.3249    2.9324    0.0000 N   0  0  0  0  0  0  0  0  0  0  0  0
    6.6376    4.2657    0.0000 C   0  0  0  0  0  0  0  0  0  0  0  0
    7.8994    5.0767    0.0000 C   0  0  0  0  0  0  0  0  0  0  0  0
    9.2327    4.3893    0.0000 C   0  0  0  0  0  0  0  0  0  0  0  0
    5.7103    5.4448    0.0000 C   0  0  0  0  0  0  0  0  0  0  0  0
    6.7959    6.4799    0.0000 O   0  0  0  0  0  0  0  0  0  0  0  0
    4.5767    6.4271    0.0000 N   0  0  0  0  0  0  0  0  0  0  0  0
    5.4468    7.6489    0.0000 C   0  0  0  0  0  0  0  0  0  0  0  0
    3.2777    7.1771    0.0000 C   0  0  0  0  0  0  0  0  0  0  0  0
    3.9008    8.5415    0.0000 C   0  0  0  0  0  0  0  0  0  0  0  0
    1.8602    7.6677    0.0000 C   0  0  0  0  0  0  0  0  0  0  0  0
    2.2138    9.1254    0.0000 O   0  0  0  0  0  0  0  0  0  0  0  0
    0.3754    7.8811    0.0000 N   0  0  0  0  0  0  0  0  0  0  0  0
    0.4468    9.3794    0.0000 C   0  0  0  0  0  0  0  0  0  0  0  0
   -1.1229    7.8098    0.0000 C   0  0  0  0  0  0  0  0  0  0  0  0
   -1.3363    9.2945    0.0000 C   0  0  0  0  0  0  0  0  0  0  0  0
   -0.1573   10.2217    0.0000 C   0  0  0  0  0  0  0  0  0  0  0  0
   -2.7289    9.8520    0.0000 C   0  0  0  0  0  0  0  0  0  0  0  0
   -2.9424   11.3367    0.0000 N   0  0  0  0  0  0  0  0  0  0  0  0
   -1.7633   12.2640    0.0000 C   0  0  0  0  0  0  0  0  0  0  0  0
   -1.9768   13.7487    0.0000 C   0  0  0  0  0  0  0  0  0  0  0  0
   -3.3693   14.3062    0.0000 N   0  0  0  0  0  0  0  0  0  0  0  0
   -3.5828   15.7909    0.0000 C   0  0  0  0  0  0  0  0  0  0  0  0
   -2.4037   16.7182    0.0000 C   0  0  0  0  0  0  0  0  0  0  0  0
   -2.6172   18.2029    0.0000 O   0  0  0  0  0  0  0  0  0  0  0  0
   -1.4381   19.1301    0.0000 C   0  0  0  0  0  0  0  0  0  0  0  0
   -4.5484   13.3790    0.0000 C   0  0  0  0  0  0  0  0  0  0  0  0
   -4.3349   11.8942    0.0000 C   0  0  0  0  0  0  0  0  0  0  0  0
   -2.5806    7.4561    0.0000 C   0  0  0  0  0  0  0  0  0  0  0  0
   -3.0712    8.8736    0.0000 O   0  0  0  0  0  0  0  0  0  0  0  0
   -3.9450    6.8330    0.0000 N   0  0  0  0  0  0  0  0  0  0  0  0
   -5.1669    5.9629    0.0000 C   0  0  0  0  0  0  0  0  0  0  0  0
   -6.1492    7.0966    0.0000 C   0  0  0  0  0  0  0  0  0  0  0  0
   -5.6586    8.5141    0.0000 C   0  0  0  0  0  0  0  0  0  0  0  0
   -7.6221    6.8127    0.0000 C   0  0  0  0  0  0  0  0  0  0  0  0
   -6.2020    4.8773    0.0000 C   0  0  0  0  0  0  0  0  0  0  0  0
   -7.3811    5.8046    0.0000 O   0  0  0  0  0  0  0  0  0  0  0  0
   -7.0130    3.6154    0.0000 N   0  0  0  0  0  0  0  0  0  0  0  0
   -8.3462    4.3028    0.0000 C   0  0  0  0  0  0  0  0  0  0  0  0
   -7.5705    2.2229    0.0000 C   0  0  0  0  0  0  0  0  0  0  0  0
   -9.0097    2.6455    0.0000 C   0  0  0  0  0  0  0  0  0  0  0  0
   -9.3634    4.1032    0.0000 C   0  0  0  0  0  0  0  0  0  0  0  0
  -10.8026    4.5258    0.0000 C   0  0  0  0  0  0  0  0  0  0  0  0
   -8.2778    5.1383    0.0000 C   0  0  0  0  0  0  0  0  0  0  0  0
   -7.8544    0.7500    0.0000 C   0  0  0  0  0  0  0  0  0  0  0  0
   -9.3476    0.8926    0.0000 O   0  0  0  0  0  0  0  0  0  0  0  0
   -7.8544   -0.7500    0.0000 N   0  0  0  0  0  0  0  0  0  0  0  0
   -7.5705   -2.2229    0.0000 C   0  0  0  0  0  0  0  0  0  0  0  0
   -9.0097   -2.6455    0.0000 C   0  0  0  0  0  0  0  0  0  0  0  0
   -7.0130   -3.6154    0.0000 C   0  0  0  0  0  0  0  0  0  0  0  0
   -8.3462   -4.3028    0.0000 O   0  0  0  0  0  0  0  0  0  0  0  0
   -6.2020   -4.8773    0.0000 N   0  0  0  0  0  0  0  0  0  0  0  0
   -5.1669   -5.9629    0.0000 C   0  0  0  0  0  0  0  0  0  0  0  0
   -6.1492   -7.0966    0.0000 C   0  0  0  0  0  0  0  0  0  0  0  0
   -3.9450   -6.8330    0.0000 C   0  0  0  0  0  0  0  0  0  0  0  0
   -4.6950   -8.1320    0.0000 O   0  0  0  0  0  0  0  0  0  0  0  0
   -2.5806   -7.4561    0.0000 N   0  0  0  0  0  0  0  0  0  0  0  0
   -3.0712   -8.8736    0.0000 C   0  0  0  0  0  0  0  0  0  0  0  0
   -1.1229   -7.8098    0.0000 C   0  0  0  0  0  0  0  0  0  0  0  0
   -1.3363   -9.2945    0.0000 C   0  0  0  0  0  0  0  0  0  0  0  0
   -2.7289   -9.8520    0.0000 C   0  0  0  0  0  0  0  0  0  0  0  0
   -2.9424  -11.3367    0.0000 C   0  0  0  0  0  0  0  0  0  0  0  0
   -3.9080   -8.9248    0.0000 C   0  0  0  0  0  0  0  0  0  0  0  0
    0.3754   -7.8811    0.0000 C   0  0  0  0  0  0  0  0  0  0  0  0
    0.4468   -9.3794    0.0000 O   0  0  0  0  0  0  0  0  0  0  0  0
    1.8602   -7.6677    0.0000 N   0  0  0  0  0  0  0  0  0  0  0  0
    2.2138   -9.1254    0.0000 C   0  0  0  0  0  0  0  0  0  0  0  0
    3.2777   -7.1771    0.0000 C   0  0  0  0  0  0  0  0  0  0  0  0
    3.9008   -8.5415    0.0000 C   0  0  0  0  0  0  0  0  0  0  0  0
    3.0307   -9.7634    0.0000 C   0  0  0  0  0  0  0  0  0  0  0  0
    3.6538  -11.1278    0.0000 C   0  0  0  0  0  0  0  0  0  0  0  0
    1.5375   -9.6208    0.0000 C   0  0  0  0  0  0  0  0  0  0  0  0
    4.5767   -6.4271    0.0000 C   0  0  0  0  0  0  0  0  0  0  0  0
    5.4468   -7.6489    0.0000 O   0  0  0  0  0  0  0  0  0  0  0  0
    5.7103   -5.4448    0.0000 N   0  0  0  0  0  0  0  0  0  0  0  0
    6.7959   -6.4799    0.0000 C   0  0  0  0  0  0  0  0  0  0  0  0
    6.6376   -4.2657    0.0000 C   0  0  0  0  0  0  0  0  0  0  0  0
    7.8994   -5.0767    0.0000 C   0  0  0  0  0  0  0  0  0  0  0  0
    7.8281   -6.5750    0.0000 C   0  0  0  0  0  0  0  0  0  0  0  0
    9.2327   -4.3893    0.0000 C   0  0  0  0  0  0  0  0  0  0  0  0
    7.3249   -2.9324    0.0000 C   0  0  0  0  0  0  0  0  0  0  0  0
    8.7175   -3.4899    0.0000 O   0  0  0  0  0  0  0  0  0  0  0  0
    7.7475   -1.4932    0.0000 N   0  0  0  0  0  0  0  0  0  0  0  0
    9.2204   -1.7771    0.0000 C   0  0  0  0  0  0  0  0  0  0  0  0
  1  2  1  0
  2  3  2  0
  3  4  1  0
  4  5  1  0
  5  6  1  6
  5  7  1  0
  7  8  1  6
  7  9  1  0
  9 10  1  6
 10 11  2  0
 10 12  1  0
 12 13  1  0
 13 14  1  6
 14 15  1  0
 13 16  1  0
 16 17  2  0
 16 18  1  0
 18 19  1  0
 18 20  1  0
 20 21  1  1
 20 22  1  0
 22 23  2  0
 22 24  1  0
 24 25  1  0
 24 26  1  0
 26 27  1  0
 27 28  1  6
 27 29  1  0
 29 30  1  0
 30 31  1  0
 31 32  1  0
 32 33  1  0
 33 34  1  0
 34 35  1  0
 35 36  1  0
 36 37  1  0
 33 38  1  0
 38 39  1  0
 26 40  1  6
 40 41  2  0
 40 42  1  0
 42 43  1  0
 43 44  1  6
 44 45  1  0
 44 46  1  0
 43 47  1  0
 47 48  2  0
 47 49  1  0
 49 50  1  0
 49 51  1  0
 51 52  1  6
 52 53  1  0
 53 54  1  0
 53 55  1  0
 51 56  1  0
 56 57  2  0
 56 58  1  0
 58 59  1  0
 59 60  1  6
 59 61  1  0
 61 62  2  0
 61 63  1  0
 63 64  1  0
 64 65  1  1
 64 66  1  0
 66 67  2  0
 66 68  1  0
 68 69  1  0
 68 70  1  0
 70 71  1  6
 71 72  1  0
 72 73  1  0
 72 74  1  0
 70 75  1  0
 75 76  2  0
 75 77  1  0
 77 78  1  0
 77 79  1  0
 79 80  1  6
 80 81  1  0
 81 82  1  0
 81 83  1  0
 79 84  1  0
 84 85  2  0
 84 86  1  0
 86 87  1  0
 86 88  1  0
 88 89  1  6
 89 90  1  0
 89 91  1  0
 88 92  1  0
 92 93  2  0
 92 94  1  0
 94 95  1  0
 94  9  1  0
 39 30  1  0
M  END
>  <assay_description>  (37) 
Inhibition of OATP1B1 (unknown origin) expressed in HEK293 cells using [3H]estradiol-17beta-glucuronide substrate

>  <molecule_pref_name>  (37) 
None

>  <canonical_smiles>  (37) 
C/C=C/C[C@@H](C)[C@@H](O)[C@H]1C(=O)N[C@@H](CC)C(=O)N(C)[C@H](C)C(=O)N(C)[C@@H]([C@@H](C)CN2CCN(CCOC)CC2)C(=O)N[C@@H](C(C)C)C(=O)N(C)[C@@H](CC(C)C)C(=O)N[C@@H](C)C(=O)N[C@H](C)C(=O)N(C)[C@@H](CC(C)C)C(=O)N(C)[C@@H](CC(C)C)C(=O)N(C)[C@@H](C(C)C)C(=O)N1C

>  <pchembl_value>  (37) 
5.92

>  <standard_type>  (37) 
IC50

>  <standard_relation>  (37) 
=

>  <standard_value>  (37) 
1200.0

>  <standard_units>  (37) 
nM

>  <target_pref_name>  (37) 
Solute carrier organic anion transporter family member 1B1

>  <target_organism>  (37) 
Homo sapiens

$$$$
CHEMBL428647
     RDKit          2D

 62 68  0  0  0  0  0  0  0  0999 V2000
   -6.8980   -5.9648    0.0000 C   0  0  0  0  0  0  0  0  0  0  0  0
   -5.9848   -4.7747    0.0000 C   0  0  0  0  0  0  0  0  0  0  0  0
   -4.4977   -4.9705    0.0000 O   0  0  0  0  0  0  0  0  0  0  0  0
   -6.5588   -3.3889    0.0000 O   0  0  0  0  0  0  0  0  0  0  0  0
   -5.6457   -2.1989    0.0000 C   0  0  0  0  0  0  0  0  0  0  0  0
   -4.1968   -2.5871    0.0000 C   0  0  0  0  0  0  0  0  0  0  0  0
   -4.0010   -4.0743    0.0000 O   0  0  0  0  0  0  0  0  0  0  0  0
   -2.8978   -1.8371    0.0000 C   0  0  0  0  0  0  0  0  0  0  0  0
   -3.0936   -3.3243    0.0000 C   0  0  0  0  0  0  0  0  0  0  0  0
   -1.8371   -2.8978    0.0000 C   0  0  0  0  0  0  0  0  0  0  0  0
   -2.2253   -4.3467    0.0000 O   0  0  0  0  0  0  0  0  0  0  0  0
   -0.3882   -2.5095    0.0000 C   0  0  0  0  0  0  0  0  0  0  0  0
   -0.0000   -1.0607    0.0000 C   0  0  0  0  0  0  0  0  0  0  0  0
    1.0607    0.0000    0.0000 O   0  0  0  0  0  0  0  0  0  0  0  0
    0.0000    1.0607    0.0000 C   0  0  0  0  0  0  0  0  0  0  0  0
   -1.0607    0.0000    0.0000 C   0  0  0  0  0  0  0  0  0  0  0  0
   -1.8107    1.2990    0.0000 O   0  0  0  0  0  0  0  0  0  0  0  0
   -1.0607    2.5981    0.0000 C   0  0  0  0  0  0  0  0  0  0  0  0
   -1.8107    3.8971    0.0000 C   0  0  0  0  0  0  0  0  0  0  0  0
    0.4393    2.5981    0.0000 O   0  0  0  0  0  0  0  0  0  0  0  0
   -2.5095   -0.3882    0.0000 C   0  0  0  0  0  0  0  0  0  0  0  0
   -3.2595    0.9108    0.0000 C   0  0  0  0  0  0  0  0  0  0  0  0
   -2.3464    2.1008    0.0000 O   0  0  0  0  0  0  0  0  0  0  0  0
   -2.9204    3.4867    0.0000 C   0  0  0  0  0  0  0  0  0  0  0  0
   -4.4076    3.6824    0.0000 O   0  0  0  0  0  0  0  0  0  0  0  0
   -2.0073    4.6767    0.0000 C   0  0  0  0  0  0  0  0  0  0  0  0
   -0.5201    4.4809    0.0000 C   0  0  0  0  0  0  0  0  0  0  0  0
    0.3930    5.6709    0.0000 C   0  0  0  0  0  0  0  0  0  0  0  0
   -0.1810    7.0567    0.0000 C   0  0  0  0  0  0  0  0  0  0  0  0
   -1.6682    7.2525    0.0000 C   0  0  0  0  0  0  0  0  0  0  0  0
   -2.5813    6.0625    0.0000 C   0  0  0  0  0  0  0  0  0  0  0  0
   -4.7084    1.2990    0.0000 C   0  0  0  0  0  0  0  0  0  0  0  0
   -4.9042    2.7862    0.0000 O   0  0  0  0  0  0  0  0  0  0  0  0
   -6.0041    2.0745    0.0000 C   0  0  0  0  0  0  0  0  0  0  0  0
   -7.3899    1.5005    0.0000 C   0  0  0  0  0  0  0  0  0  0  0  0
   -8.5800    2.4136    0.0000 O   0  0  0  0  0  0  0  0  0  0  0  0
   -8.3842    3.9008    0.0000 C   0  0  0  0  0  0  0  0  0  0  0  0
   -6.9984    4.4748    0.0000 O   0  0  0  0  0  0  0  0  0  0  0  0
   -9.5742    4.8139    0.0000 C   0  0  0  0  0  0  0  0  0  0  0  0
  -10.9600    4.2399    0.0000 O   0  0  0  0  0  0  0  0  0  0  0  0
   -9.3784    6.3011    0.0000 C   0  0  0  0  0  0  0  0  0  0  0  0
   -7.9926    6.8751    0.0000 N   0  0  0  0  0  0  0  0  0  0  0  0
   -7.7968    8.3623    0.0000 C   0  0  0  0  0  0  0  0  0  0  0  0
   -8.9868    9.2754    0.0000 O   0  0  0  0  0  0  0  0  0  0  0  0
   -6.4110    8.9363    0.0000 C   0  0  0  0  0  0  0  0  0  0  0  0
   -5.2210    8.0232    0.0000 C   0  0  0  0  0  0  0  0  0  0  0  0
   -3.8351    8.5972    0.0000 C   0  0  0  0  0  0  0  0  0  0  0  0
   -3.6394   10.0843    0.0000 C   0  0  0  0  0  0  0  0  0  0  0  0
   -4.8294   10.9975    0.0000 C   0  0  0  0  0  0  0  0  0  0  0  0
   -6.2152   10.4235    0.0000 C   0  0  0  0  0  0  0  0  0  0  0  0
  -10.5685    7.2142    0.0000 C   0  0  0  0  0  0  0  0  0  0  0  0
  -10.3727    8.7014    0.0000 C   0  0  0  0  0  0  0  0  0  0  0  0
  -11.5627    9.6145    0.0000 C   0  0  0  0  0  0  0  0  0  0  0  0
  -12.9485    9.0405    0.0000 C   0  0  0  0  0  0  0  0  0  0  0  0
  -13.1443    7.5533    0.0000 C   0  0  0  0  0  0  0  0  0  0  0  0
  -11.9543    6.6402    0.0000 C   0  0  0  0  0  0  0  0  0  0  0  0
   -7.5857    0.0133    0.0000 C   0  0  0  0  0  0  0  0  0  0  0  0
   -8.9716   -0.5607    0.0000 C   0  0  0  0  0  0  0  0  0  0  0  0
   -6.3957   -0.8999    0.0000 C   0  0  0  0  0  0  0  0  0  0  0  0
   -6.0075    0.5490    0.0000 C   0  0  0  0  0  0  0  0  0  0  0  0
   -6.7348    1.8609    0.0000 C   0  0  0  0  0  0  0  0  0  0  0  0
   -7.0685    0.8136    0.0000 C   0  0  0  0  0  0  0  0  0  0  0  0
  1  2  1  0
  2  3  2  0
  2  4  1  0
  5  4  1  6
  5  6  1  0
  6  7  2  0
  6  8  1  0
  8  9  1  6
  8 10  1  0
 10 11  1  6
 10 12  1  0
 13 12  1  6
 13 14  1  0
 14 15  1  0
 15 16  1  0
 16 17  1  1
 17 18  1  0
 18 19  1  0
 18 20  2  0
 16 21  1  0
 21 22  1  6
 22 23  1  1
 23 24  1  0
 24 25  2  0
 24 26  1  0
 26 27  2  0
 27 28  1  0
 28 29  2  0
 29 30  1  0
 30 31  2  0
 22 32  1  0
 32 33  1  6
 32 34  1  0
 34 35  1  0
 35 36  1  1
 36 37  1  0
 37 38  2  0
 37 39  1  0
 39 40  1  6
 39 41  1  0
 41 42  1  6
 42 43  1  0
 43 44  2  0
 43 45  1  0
 45 46  2  0
 46 47  1  0
 47 48  2  0
 48 49  1  0
 49 50  2  0
 41 51  1  0
 51 52  2  0
 52 53  1  0
 53 54  2  0
 54 55  1  0
 55 56  2  0
 35 57  1  0
 57 58  1  0
 57 59  2  0
 59 60  1  0
 60 61  1  0
 60 62  1  0
 59  5  1  0
 21  8  1  0
 31 26  1  0
 60 32  1  0
 16 13  1  0
 50 45  1  0
 56 51  1  0
M  END
>  <assay_description>  (38) 
Inhibition of human OATP1B1-mediated [3H]estrone 3-sulfate at after 5 mins by Dixon plot method

>  <molecule_pref_name>  (38) 
PACLITAXEL

>  <canonical_smiles>  (38) 
CC(=O)O[C@H]1C(=O)[C@]2(C)[C@@H](O)C[C@H]3OC[C@@]3(OC(C)=O)[C@H]2[C@H](OC(=O)c2ccccc2)[C@]2(O)C[C@H](OC(=O)[C@H](O)[C@@H](NC(=O)c3ccccc3)c3ccccc3)C(C)=C1C2(C)C

>  <pchembl_value>  (38) 
6.08

>  <standard_type>  (38) 
Ki

>  <standard_relation>  (38) 
=

>  <standard_value>  (38) 
840.0

>  <standard_units>  (38) 
nM

>  <target_pref_name>  (38) 
Solute carrier organic anion transporter family member 1B1

>  <target_organism>  (38) 
Homo sapiens

$$$$
CHEMBL159
     RDKit          2D

 59 67  0  0  0  0  0  0  0  0999 V2000
   -6.0861   -9.7526    0.0000 C   0  0  0  0  0  0  0  0  0  0  0  0
   -5.6727   -8.3108    0.0000 C   0  0  0  0  0  0  0  0  0  0  0  0
   -4.2172   -7.9479    0.0000 C   0  0  0  0  0  0  0  0  0  0  0  0
   -4.1126   -9.4442    0.0000 O   0  0  0  0  0  0  0  0  0  0  0  0
   -2.7255   -8.1047    0.0000 C   0  0  0  0  0  0  0  0  0  0  0  0
   -1.6650   -7.0210    0.0000 C   0  0  0  0  0  0  0  0  0  0  0  0
   -3.1069   -6.6076    0.0000 C   0  0  0  0  0  0  0  0  0  0  0  0
   -3.9457   -5.3640    0.0000 N   0  0  0  0  0  0  0  0  0  0  0  0
   -3.7889   -3.8722    0.0000 C   0  0  0  0  0  0  0  0  0  0  0  0
   -2.7099   -2.8303    0.0000 C   0  0  0  0  0  0  0  0  0  0  0  0
   -1.2135   -2.7256    0.0000 C   0  0  0  0  0  0  0  0  0  0  0  0
   -0.0000   -3.6073    0.0000 C   0  0  0  0  0  0  0  0  0  0  0  0
    1.2135   -2.7256    0.0000 N   0  0  0  0  0  0  0  0  0  0  0  0
    0.7500   -1.2990    0.0000 C   0  0  0  0  0  0  0  0  0  0  0  0
    1.5000    0.0000    0.0000 C   0  0  0  0  0  0  0  0  0  0  0  0
    0.7500    1.2990    0.0000 C   0  0  0  0  0  0  0  0  0  0  0  0
   -0.7500    1.2990    0.0000 C   0  0  0  0  0  0  0  0  0  0  0  0
   -1.5000   -0.0000    0.0000 C   0  0  0  0  0  0  0  0  0  0  0  0
   -0.7500   -1.2990    0.0000 C   0  0  0  0  0  0  0  0  0  0  0  0
    0.3629   -5.0627    0.0000 C   0  0  0  0  0  0  0  0  0  0  0  0
    1.4658   -6.0793    0.0000 C   0  0  0  0  0  0  0  0  0  0  0  0
    2.9633   -5.9922    0.0000 O   0  0  0  0  0  0  0  0  0  0  0  0
    1.1369   -7.5428    0.0000 O   0  0  0  0  0  0  0  0  0  0  0  0
    2.2399   -8.5594    0.0000 C   0  0  0  0  0  0  0  0  0  0  0  0
    1.6531   -4.2977    0.0000 C   0  0  0  0  0  0  0  0  0  0  0  0
    2.9608   -5.0325    0.0000 C   0  0  0  0  0  0  0  0  0  0  0  0
    4.2510   -4.2675    0.0000 C   0  0  0  0  0  0  0  0  0  0  0  0
    4.2336   -2.7676    0.0000 C   0  0  0  0  0  0  0  0  0  0  0  0
    2.9259   -2.0327    0.0000 C   0  0  0  0  0  0  0  0  0  0  0  0
    1.6357   -2.7978    0.0000 C   0  0  0  0  0  0  0  0  0  0  0  0
    0.3280   -2.0629    0.0000 O   0  0  0  0  0  0  0  0  0  0  0  0
    0.3105   -0.5630    0.0000 C   0  0  0  0  0  0  0  0  0  0  0  0
    5.6546   -2.2875    0.0000 N   0  0  0  0  0  0  0  0  0  0  0  0
    6.1015   -0.8556    0.0000 C   0  0  0  0  0  0  0  0  0  0  0  0
    6.5504   -3.4906    0.0000 C   0  0  0  0  0  0  0  0  0  0  0  0
    8.0439   -3.6301    0.0000 C   0  0  0  0  0  0  0  0  0  0  0  0
    7.9219   -2.1350    0.0000 O   0  0  0  0  0  0  0  0  0  0  0  0
    9.4950   -3.2503    0.0000 C   0  0  0  0  0  0  0  0  0  0  0  0
   10.7763   -4.0302    0.0000 O   0  0  0  0  0  0  0  0  0  0  0  0
    9.8917   -1.8037    0.0000 O   0  0  0  0  0  0  0  0  0  0  0  0
   11.3428   -1.4239    0.0000 C   0  0  0  0  0  0  0  0  0  0  0  0
    8.6699   -4.9932    0.0000 C   0  0  0  0  0  0  0  0  0  0  0  0
   10.1634   -5.1326    0.0000 O   0  0  0  0  0  0  0  0  0  0  0  0
   10.7894   -6.4957    0.0000 C   0  0  0  0  0  0  0  0  0  0  0  0
   12.2829   -6.6352    0.0000 C   0  0  0  0  0  0  0  0  0  0  0  0
   10.0775   -7.8161    0.0000 O   0  0  0  0  0  0  0  0  0  0  0  0
    7.8024   -6.2169    0.0000 C   0  0  0  0  0  0  0  0  0  0  0  0
    9.2959   -6.3563    0.0000 C   0  0  0  0  0  0  0  0  0  0  0  0
    9.7511   -7.7856    0.0000 C   0  0  0  0  0  0  0  0  0  0  0  0
    8.4284   -7.5800    0.0000 C   0  0  0  0  0  0  0  0  0  0  0  0
    7.5609   -8.8037    0.0000 C   0  0  0  0  0  0  0  0  0  0  0  0
    6.0674   -8.6643    0.0000 C   0  0  0  0  0  0  0  0  0  0  0  0
    5.4414   -7.3012    0.0000 N   0  0  0  0  0  0  0  0  0  0  0  0
    4.0641   -6.7071    0.0000 C   0  0  0  0  0  0  0  0  0  0  0  0
    4.2035   -5.2135    0.0000 C   0  0  0  0  0  0  0  0  0  0  0  0
    5.6829   -4.7143    0.0000 C   0  0  0  0  0  0  0  0  0  0  0  0
    6.3089   -6.0775    0.0000 C   0  0  0  0  0  0  0  0  0  0  0  0
   -0.2947   -6.4109    0.0000 C   0  0  0  0  0  0  0  0  0  0  0  0
   -4.8274   -6.5776    0.0000 C   0  0  0  0  0  0  0  0  0  0  0  0
  1  2  1  0
  2  3  1  0
  3  4  1  6
  3  5  1  0
  6  5  1  6
  6  7  1  0
  7  8  1  0
  8  9  1  0
  9 10  1  0
 10 11  1  0
 11 12  2  0
 12 13  1  0
 13 14  1  0
 14 15  2  0
 15 16  1  0
 16 17  2  0
 17 18  1  0
 18 19  2  0
 12 20  1  0
 20 21  1  6
 21 22  2  0
 21 23  1  0
 23 24  1  0
 20 25  1  0
 25 26  2  0
 26 27  1  0
 27 28  2  0
 28 29  1  0
 29 30  2  0
 30 31  1  0
 31 32  1  0
 28 33  1  0
 33 34  1  0
 35 33  1  1
 35 36  1  0
 36 37  1  6
 36 38  1  0
 38 39  2  0
 38 40  1  0
 40 41  1  0
 36 42  1  0
 42 43  1  6
 43 44  1  0
 44 45  1  0
 44 46  2  0
 42 47  1  0
 47 48  1  1
 48 49  1  0
 47 50  1  0
 50 51  2  0
 51 52  1  0
 52 53  1  0
 53 54  1  0
 54 55  1  0
 56 55  1  6
 56 57  1  0
 20 58  1  0
  8 59  1  0
 59  3  1  0
 58  6  1  0
 19 11  1  0
 30 25  1  0
 56 35  1  0
 19 14  1  0
 56 27  1  0
 57 47  1  0
 57 53  1  6
M  END
>  <assay_description>  (39) 
Inhibition of human OATP1B1-mediated [3H]estrone 3-sulfate at after 5 mins by Dixon plot method

>  <molecule_pref_name>  (39) 
VINBLASTINE

>  <canonical_smiles>  (39) 
CC[C@]1(O)C[C@@H]2CN(CCc3c([nH]c4ccccc34)[C@@](C(=O)OC)(c3cc4c(cc3OC)N(C)[C@H]3[C@@](O)(C(=O)OC)[C@H](OC(C)=O)[C@]5(CC)C=CCN6CC[C@]43[C@@H]65)C2)C1

>  <pchembl_value>  (39) 
4.99

>  <standard_type>  (39) 
Ki

>  <standard_relation>  (39) 
=

>  <standard_value>  (39) 
10200.0

>  <standard_units>  (39) 
nM

>  <target_pref_name>  (39) 
Solute carrier organic anion transporter family member 1B1

>  <target_organism>  (39) 
Homo sapiens

$$$$
CHEMBL159
     RDKit          2D

 59 67  0  0  0  0  0  0  0  0999 V2000
   -6.0861   -9.7526    0.0000 C   0  0  0  0  0  0  0  0  0  0  0  0
   -5.6727   -8.3108    0.0000 C   0  0  0  0  0  0  0  0  0  0  0  0
   -4.2172   -7.9479    0.0000 C   0  0  0  0  0  0  0  0  0  0  0  0
   -4.1126   -9.4442    0.0000 O   0  0  0  0  0  0  0  0  0  0  0  0
   -2.7255   -8.1047    0.0000 C   0  0  0  0  0  0  0  0  0  0  0  0
   -1.6650   -7.0210    0.0000 C   0  0  0  0  0  0  0  0  0  0  0  0
   -3.1069   -6.6076    0.0000 C   0  0  0  0  0  0  0  0  0  0  0  0
   -3.9457   -5.3640    0.0000 N   0  0  0  0  0  0  0  0  0  0  0  0
   -3.7889   -3.8722    0.0000 C   0  0  0  0  0  0  0  0  0  0  0  0
   -2.7099   -2.8303    0.0000 C   0  0  0  0  0  0  0  0  0  0  0  0
   -1.2135   -2.7256    0.0000 C   0  0  0  0  0  0  0  0  0  0  0  0
   -0.0000   -3.6073    0.0000 C   0  0  0  0  0  0  0  0  0  0  0  0
    1.2135   -2.7256    0.0000 N   0  0  0  0  0  0  0  0  0  0  0  0
    0.7500   -1.2990    0.0000 C   0  0  0  0  0  0  0  0  0  0  0  0
    1.5000    0.0000    0.0000 C   0  0  0  0  0  0  0  0  0  0  0  0
    0.7500    1.2990    0.0000 C   0  0  0  0  0  0  0  0  0  0  0  0
   -0.7500    1.2990    0.0000 C   0  0  0  0  0  0  0  0  0  0  0  0
   -1.5000   -0.0000    0.0000 C   0  0  0  0  0  0  0  0  0  0  0  0
   -0.7500   -1.2990    0.0000 C   0  0  0  0  0  0  0  0  0  0  0  0
    0.3629   -5.0627    0.0000 C   0  0  0  0  0  0  0  0  0  0  0  0
    1.4658   -6.0793    0.0000 C   0  0  0  0  0  0  0  0  0  0  0  0
    2.9633   -5.9922    0.0000 O   0  0  0  0  0  0  0  0  0  0  0  0
    1.1369   -7.5428    0.0000 O   0  0  0  0  0  0  0  0  0  0  0  0
    2.2399   -8.5594    0.0000 C   0  0  0  0  0  0  0  0  0  0  0  0
    1.6531   -4.2977    0.0000 C   0  0  0  0  0  0  0  0  0  0  0  0
    2.9608   -5.0325    0.0000 C   0  0  0  0  0  0  0  0  0  0  0  0
    4.2510   -4.2675    0.0000 C   0  0  0  0  0  0  0  0  0  0  0  0
    4.2336   -2.7676    0.0000 C   0  0  0  0  0  0  0  0  0  0  0  0
    2.9259   -2.0327    0.0000 C   0  0  0  0  0  0  0  0  0  0  0  0
    1.6357   -2.7978    0.0000 C   0  0  0  0  0  0  0  0  0  0  0  0
    0.3280   -2.0629    0.0000 O   0  0  0  0  0  0  0  0  0  0  0  0
    0.3105   -0.5630    0.0000 C   0  0  0  0  0  0  0  0  0  0  0  0
    5.6546   -2.2875    0.0000 N   0  0  0  0  0  0  0  0  0  0  0  0
    6.1015   -0.8556    0.0000 C   0  0  0  0  0  0  0  0  0  0  0  0
    6.5504   -3.4906    0.0000 C   0  0  0  0  0  0  0  0  0  0  0  0
    8.0439   -3.6301    0.0000 C   0  0  0  0  0  0  0  0  0  0  0  0
    7.9219   -2.1350    0.0000 O   0  0  0  0  0  0  0  0  0  0  0  0
    9.4950   -3.2503    0.0000 C   0  0  0  0  0  0  0  0  0  0  0  0
   10.7763   -4.0302    0.0000 O   0  0  0  0  0  0  0  0  0  0  0  0
    9.8917   -1.8037    0.0000 O   0  0  0  0  0  0  0  0  0  0  0  0
   11.3428   -1.4239    0.0000 C   0  0  0  0  0  0  0  0  0  0  0  0
    8.6699   -4.9932    0.0000 C   0  0  0  0  0  0  0  0  0  0  0  0
   10.1634   -5.1326    0.0000 O   0  0  0  0  0  0  0  0  0  0  0  0
   10.7894   -6.4957    0.0000 C   0  0  0  0  0  0  0  0  0  0  0  0
   12.2829   -6.6352    0.0000 C   0  0  0  0  0  0  0  0  0  0  0  0
   10.0775   -7.8161    0.0000 O   0  0  0  0  0  0  0  0  0  0  0  0
    7.8024   -6.2169    0.0000 C   0  0  0  0  0  0  0  0  0  0  0  0
    9.2959   -6.3563    0.0000 C   0  0  0  0  0  0  0  0  0  0  0  0
    9.7511   -7.7856    0.0000 C   0  0  0  0  0  0  0  0  0  0  0  0
    8.4284   -7.5800    0.0000 C   0  0  0  0  0  0  0  0  0  0  0  0
    7.5609   -8.8037    0.0000 C   0  0  0  0  0  0  0  0  0  0  0  0
    6.0674   -8.6643    0.0000 C   0  0  0  0  0  0  0  0  0  0  0  0
    5.4414   -7.3012    0.0000 N   0  0  0  0  0  0  0  0  0  0  0  0
    4.0641   -6.7071    0.0000 C   0  0  0  0  0  0  0  0  0  0  0  0
    4.2035   -5.2135    0.0000 C   0  0  0  0  0  0  0  0  0  0  0  0
    5.6829   -4.7143    0.0000 C   0  0  0  0  0  0  0  0  0  0  0  0
    6.3089   -6.0775    0.0000 C   0  0  0  0  0  0  0  0  0  0  0  0
   -0.2947   -6.4109    0.0000 C   0  0  0  0  0  0  0  0  0  0  0  0
   -4.8274   -6.5776    0.0000 C   0  0  0  0  0  0  0  0  0  0  0  0
  1  2  1  0
  2  3  1  0
  3  4  1  6
  3  5  1  0
  6  5  1  6
  6  7  1  0
  7  8  1  0
  8  9  1  0
  9 10  1  0
 10 11  1  0
 11 12  2  0
 12 13  1  0
 13 14  1  0
 14 15  2  0
 15 16  1  0
 16 17  2  0
 17 18  1  0
 18 19  2  0
 12 20  1  0
 20 21  1  6
 21 22  2  0
 21 23  1  0
 23 24  1  0
 20 25  1  0
 25 26  2  0
 26 27  1  0
 27 28  2  0
 28 29  1  0
 29 30  2  0
 30 31  1  0
 31 32  1  0
 28 33  1  0
 33 34  1  0
 35 33  1  1
 35 36  1  0
 36 37  1  6
 36 38  1  0
 38 39  2  0
 38 40  1  0
 40 41  1  0
 36 42  1  0
 42 43  1  6
 43 44  1  0
 44 45  1  0
 44 46  2  0
 42 47  1  0
 47 48  1  1
 48 49  1  0
 47 50  1  0
 50 51  2  0
 51 52  1  0
 52 53  1  0
 53 54  1  0
 54 55  1  0
 56 55  1  6
 56 57  1  0
 20 58  1  0
  8 59  1  0
 59  3  1  0
 58  6  1  0
 19 11  1  0
 30 25  1  0
 56 35  1  0
 19 14  1  0
 56 27  1  0
 57 47  1  0
 57 53  1  6
M  END
>  <assay_description>  (40) 
Inhibition of human OATP1B1-mediated [3H]estrone 3-sulfate at after 5 mins by Dixon plot method

>  <molecule_pref_name>  (40) 
VINBLASTINE

>  <canonical_smiles>  (40) 
CC[C@]1(O)C[C@@H]2CN(CCc3c([nH]c4ccccc34)[C@@](C(=O)OC)(c3cc4c(cc3OC)N(C)[C@H]3[C@@](O)(C(=O)OC)[C@H](OC(C)=O)[C@]5(CC)C=CCN6CC[C@]43[C@@H]65)C2)C1

>  <pchembl_value>  (40) 
4.33

>  <standard_type>  (40) 
IC50

>  <standard_relation>  (40) 
=

>  <standard_value>  (40) 
46800.0

>  <standard_units>  (40) 
nM

>  <target_pref_name>  (40) 
Solute carrier organic anion transporter family member 1B1

>  <target_organism>  (40) 
Homo sapiens

$$$$
CHEMBL428647
     RDKit          2D

 62 68  0  0  0  0  0  0  0  0999 V2000
   -6.8980   -5.9648    0.0000 C   0  0  0  0  0  0  0  0  0  0  0  0
   -5.9848   -4.7747    0.0000 C   0  0  0  0  0  0  0  0  0  0  0  0
   -4.4977   -4.9705    0.0000 O   0  0  0  0  0  0  0  0  0  0  0  0
   -6.5588   -3.3889    0.0000 O   0  0  0  0  0  0  0  0  0  0  0  0
   -5.6457   -2.1989    0.0000 C   0  0  0  0  0  0  0  0  0  0  0  0
   -4.1968   -2.5871    0.0000 C   0  0  0  0  0  0  0  0  0  0  0  0
   -4.0010   -4.0743    0.0000 O   0  0  0  0  0  0  0  0  0  0  0  0
   -2.8978   -1.8371    0.0000 C   0  0  0  0  0  0  0  0  0  0  0  0
   -3.0936   -3.3243    0.0000 C   0  0  0  0  0  0  0  0  0  0  0  0
   -1.8371   -2.8978    0.0000 C   0  0  0  0  0  0  0  0  0  0  0  0
   -2.2253   -4.3467    0.0000 O   0  0  0  0  0  0  0  0  0  0  0  0
   -0.3882   -2.5095    0.0000 C   0  0  0  0  0  0  0  0  0  0  0  0
   -0.0000   -1.0607    0.0000 C   0  0  0  0  0  0  0  0  0  0  0  0
    1.0607    0.0000    0.0000 O   0  0  0  0  0  0  0  0  0  0  0  0
    0.0000    1.0607    0.0000 C   0  0  0  0  0  0  0  0  0  0  0  0
   -1.0607    0.0000    0.0000 C   0  0  0  0  0  0  0  0  0  0  0  0
   -1.8107    1.2990    0.0000 O   0  0  0  0  0  0  0  0  0  0  0  0
   -1.0607    2.5981    0.0000 C   0  0  0  0  0  0  0  0  0  0  0  0
   -1.8107    3.8971    0.0000 C   0  0  0  0  0  0  0  0  0  0  0  0
    0.4393    2.5981    0.0000 O   0  0  0  0  0  0  0  0  0  0  0  0
   -2.5095   -0.3882    0.0000 C   0  0  0  0  0  0  0  0  0  0  0  0
   -3.2595    0.9108    0.0000 C   0  0  0  0  0  0  0  0  0  0  0  0
   -2.3464    2.1008    0.0000 O   0  0  0  0  0  0  0  0  0  0  0  0
   -2.9204    3.4867    0.0000 C   0  0  0  0  0  0  0  0  0  0  0  0
   -4.4076    3.6824    0.0000 O   0  0  0  0  0  0  0  0  0  0  0  0
   -2.0073    4.6767    0.0000 C   0  0  0  0  0  0  0  0  0  0  0  0
   -0.5201    4.4809    0.0000 C   0  0  0  0  0  0  0  0  0  0  0  0
    0.3930    5.6709    0.0000 C   0  0  0  0  0  0  0  0  0  0  0  0
   -0.1810    7.0567    0.0000 C   0  0  0  0  0  0  0  0  0  0  0  0
   -1.6682    7.2525    0.0000 C   0  0  0  0  0  0  0  0  0  0  0  0
   -2.5813    6.0625    0.0000 C   0  0  0  0  0  0  0  0  0  0  0  0
   -4.7084    1.2990    0.0000 C   0  0  0  0  0  0  0  0  0  0  0  0
   -4.9042    2.7862    0.0000 O   0  0  0  0  0  0  0  0  0  0  0  0
   -6.0041    2.0745    0.0000 C   0  0  0  0  0  0  0  0  0  0  0  0
   -7.3899    1.5005    0.0000 C   0  0  0  0  0  0  0  0  0  0  0  0
   -8.5800    2.4136    0.0000 O   0  0  0  0  0  0  0  0  0  0  0  0
   -8.3842    3.9008    0.0000 C   0  0  0  0  0  0  0  0  0  0  0  0
   -6.9984    4.4748    0.0000 O   0  0  0  0  0  0  0  0  0  0  0  0
   -9.5742    4.8139    0.0000 C   0  0  0  0  0  0  0  0  0  0  0  0
  -10.9600    4.2399    0.0000 O   0  0  0  0  0  0  0  0  0  0  0  0
   -9.3784    6.3011    0.0000 C   0  0  0  0  0  0  0  0  0  0  0  0
   -7.9926    6.8751    0.0000 N   0  0  0  0  0  0  0  0  0  0  0  0
   -7.7968    8.3623    0.0000 C   0  0  0  0  0  0  0  0  0  0  0  0
   -8.9868    9.2754    0.0000 O   0  0  0  0  0  0  0  0  0  0  0  0
   -6.4110    8.9363    0.0000 C   0  0  0  0  0  0  0  0  0  0  0  0
   -5.2210    8.0232    0.0000 C   0  0  0  0  0  0  0  0  0  0  0  0
   -3.8351    8.5972    0.0000 C   0  0  0  0  0  0  0  0  0  0  0  0
   -3.6394   10.0843    0.0000 C   0  0  0  0  0  0  0  0  0  0  0  0
   -4.8294   10.9975    0.0000 C   0  0  0  0  0  0  0  0  0  0  0  0
   -6.2152   10.4235    0.0000 C   0  0  0  0  0  0  0  0  0  0  0  0
  -10.5685    7.2142    0.0000 C   0  0  0  0  0  0  0  0  0  0  0  0
  -10.3727    8.7014    0.0000 C   0  0  0  0  0  0  0  0  0  0  0  0
  -11.5627    9.6145    0.0000 C   0  0  0  0  0  0  0  0  0  0  0  0
  -12.9485    9.0405    0.0000 C   0  0  0  0  0  0  0  0  0  0  0  0
  -13.1443    7.5533    0.0000 C   0  0  0  0  0  0  0  0  0  0  0  0
  -11.9543    6.6402    0.0000 C   0  0  0  0  0  0  0  0  0  0  0  0
   -7.5857    0.0133    0.0000 C   0  0  0  0  0  0  0  0  0  0  0  0
   -8.9716   -0.5607    0.0000 C   0  0  0  0  0  0  0  0  0  0  0  0
   -6.3957   -0.8999    0.0000 C   0  0  0  0  0  0  0  0  0  0  0  0
   -6.0075    0.5490    0.0000 C   0  0  0  0  0  0  0  0  0  0  0  0
   -6.7348    1.8609    0.0000 C   0  0  0  0  0  0  0  0  0  0  0  0
   -7.0685    0.8136    0.0000 C   0  0  0  0  0  0  0  0  0  0  0  0
  1  2  1  0
  2  3  2  0
  2  4  1  0
  5  4  1  6
  5  6  1  0
  6  7  2  0
  6  8  1  0
  8  9  1  6
  8 10  1  0
 10 11  1  6
 10 12  1  0
 13 12  1  6
 13 14  1  0
 14 15  1  0
 15 16  1  0
 16 17  1  1
 17 18  1  0
 18 19  1  0
 18 20  2  0
 16 21  1  0
 21 22  1  6
 22 23  1  1
 23 24  1  0
 24 25  2  0
 24 26  1  0
 26 27  2  0
 27 28  1  0
 28 29  2  0
 29 30  1  0
 30 31  2  0
 22 32  1  0
 32 33  1  6
 32 34  1  0
 34 35  1  0
 35 36  1  1
 36 37  1  0
 37 38  2  0
 37 39  1  0
 39 40  1  6
 39 41  1  0
 41 42  1  6
 42 43  1  0
 43 44  2  0
 43 45  1  0
 45 46  2  0
 46 47  1  0
 47 48  2  0
 48 49  1  0
 49 50  2  0
 41 51  1  0
 51 52  2  0
 52 53  1  0
 53 54  2  0
 54 55  1  0
 55 56  2  0
 35 57  1  0
 57 58  1  0
 57 59  2  0
 59 60  1  0
 60 61  1  0
 60 62  1  0
 59  5  1  0
 21  8  1  0
 31 26  1  0
 60 32  1  0
 16 13  1  0
 50 45  1  0
 56 51  1  0
M  END
>  <assay_description>  (41) 
Inhibition of human OATP1B1-mediated [3H]estrone 3-sulfate at after 5 mins by Dixon plot method

>  <molecule_pref_name>  (41) 
PACLITAXEL

>  <canonical_smiles>  (41) 
CC(=O)O[C@H]1C(=O)[C@]2(C)[C@@H](O)C[C@H]3OC[C@@]3(OC(C)=O)[C@H]2[C@H](OC(=O)c2ccccc2)[C@]2(O)C[C@H](OC(=O)[C@H](O)[C@@H](NC(=O)c3ccccc3)c3ccccc3)C(C)=C1C2(C)C

>  <pchembl_value>  (41) 
6.55

>  <standard_type>  (41) 
IC50

>  <standard_relation>  (41) 
=

>  <standard_value>  (41) 
280.0

>  <standard_units>  (41) 
nM

>  <target_pref_name>  (41) 
Solute carrier organic anion transporter family member 1B1

>  <target_organism>  (41) 
Homo sapiens

$$$$
CHEMBL1064
     RDKit          2D

 30 32  0  0  0  0  0  0  0  0999 V2000
    7.5000   -2.5981    0.0000 C   0  0  0  0  0  0  0  0  0  0  0  0
    6.7500   -1.2990    0.0000 C   0  0  0  0  0  0  0  0  0  0  0  0
    5.2500   -1.2990    0.0000 C   0  0  0  0  0  0  0  0  0  0  0  0
    5.2500   -2.7990    0.0000 C   0  0  0  0  0  0  0  0  0  0  0  0
    5.2500    0.2010    0.0000 C   0  0  0  0  0  0  0  0  0  0  0  0
    3.7500   -1.2990    0.0000 C   0  0  0  0  0  0  0  0  0  0  0  0
    3.0000   -2.5981    0.0000 O   0  0  0  0  0  0  0  0  0  0  0  0
    3.0000    0.0000    0.0000 O   0  0  0  0  0  0  0  0  0  0  0  0
    1.5000    0.0000    0.0000 C   0  0  0  0  0  0  0  0  0  0  0  0
    0.7500   -1.2990    0.0000 C   0  0  0  0  0  0  0  0  0  0  0  0
   -0.7500   -1.2990    0.0000 C   0  0  0  0  0  0  0  0  0  0  0  0
   -1.5000   -2.5981    0.0000 C   0  0  0  0  0  0  0  0  0  0  0  0
   -1.5000    0.0000    0.0000 C   0  0  0  0  0  0  0  0  0  0  0  0
   -0.7500    1.2990    0.0000 C   0  0  0  0  0  0  0  0  0  0  0  0
   -1.5000    2.5981    0.0000 C   0  0  0  0  0  0  0  0  0  0  0  0
   -0.7500    3.8971    0.0000 C   0  0  0  0  0  0  0  0  0  0  0  0
    0.7500    3.8971    0.0000 C   0  0  0  0  0  0  0  0  0  0  0  0
    1.5000    5.1962    0.0000 C   0  0  0  0  0  0  0  0  0  0  0  0
    1.5000    2.5981    0.0000 C   0  0  0  0  0  0  0  0  0  0  0  0
    3.0000    2.5981    0.0000 C   0  0  0  0  0  0  0  0  0  0  0  0
    3.7500    1.2990    0.0000 C   0  0  0  0  0  0  0  0  0  0  0  0
    5.2500    1.2990    0.0000 C   0  0  0  0  0  0  0  0  0  0  0  0
    6.0000   -0.0000    0.0000 C   0  0  0  0  0  0  0  0  0  0  0  0
    7.5000   -0.0000    0.0000 C   0  0  0  0  0  0  0  0  0  0  0  0
    8.2500   -1.2990    0.0000 O   0  0  0  0  0  0  0  0  0  0  0  0
    8.2500    1.2990    0.0000 C   0  0  0  0  0  0  0  0  0  0  0  0
    7.5000    2.5981    0.0000 C   0  0  0  0  0  0  0  0  0  0  0  0
    8.2500    3.8971    0.0000 O   0  0  0  0  0  0  0  0  0  0  0  0
    6.0000    2.5981    0.0000 O   0  0  0  0  0  0  0  0  0  0  0  0
    0.7500    1.2990    0.0000 C   0  0  0  0  0  0  0  0  0  0  0  0
  1  2  1  0
  2  3  1  0
  3  4  1  0
  3  5  1  0
  3  6  1  0
  6  7  2  0
  6  8  1  0
  9  8  1  1
  9 10  1  0
 10 11  1  0
 11 12  1  1
 11 13  1  0
 13 14  2  0
 14 15  1  0
 15 16  2  0
 16 17  1  0
 17 18  1  6
 17 19  1  0
 19 20  1  6
 20 21  1  0
 22 21  1  1
 22 23  1  0
 23 24  1  0
 24 25  1  6
 24 26  1  0
 26 27  1  0
 27 28  2  0
 27 29  1  0
 19 30  1  0
 30  9  1  0
 30 14  1  1
 29 22  1  0
M  END
>  <assay_description>  (42) 
Inhibition of OATP1B1 (unknown origin) expressed in HEK293 cells using estradiol-17beta-glucuronide substrate

>  <molecule_pref_name>  (42) 
SIMVASTATIN

>  <canonical_smiles>  (42) 
CCC(C)(C)C(=O)O[C@H]1C[C@@H](C)C=C2C=C[C@H](C)[C@H](CC[C@@H]3C[C@@H](O)CC(=O)O3)[C@H]21

>  <pchembl_value>  (42) 
5.36

>  <standard_type>  (42) 
IC50

>  <standard_relation>  (42) 
=

>  <standard_value>  (42) 
4400.0

>  <standard_units>  (42) 
nM

>  <target_pref_name>  (42) 
Solute carrier organic anion transporter family member 1B1

>  <target_organism>  (42) 
Homo sapiens

$$$$
CHEMBL6966
     RDKit          2D

 33 34  0  0  0  0  0  0  0  0999 V2000
    3.7500   -1.2990    0.0000 C   0  0  0  0  0  0  0  0  0  0  0  0
    3.0000    0.0000    0.0000 O   0  0  0  0  0  0  0  0  0  0  0  0
    1.5000    0.0000    0.0000 C   0  0  0  0  0  0  0  0  0  0  0  0
    0.7500   -1.2990    0.0000 C   0  0  0  0  0  0  0  0  0  0  0  0
   -0.7500   -1.2990    0.0000 C   0  0  0  0  0  0  0  0  0  0  0  0
   -1.5000    0.0000    0.0000 C   0  0  0  0  0  0  0  0  0  0  0  0
   -3.0000    0.0000    0.0000 C   0  0  0  0  0  0  0  0  0  0  0  0
   -3.7500    1.2990    0.0000 C   0  0  0  0  0  0  0  0  0  0  0  0
   -5.2500    1.2990    0.0000 N   0  0  0  0  0  0  0  0  0  0  0  0
   -6.0000    2.5981    0.0000 C   0  0  0  0  0  0  0  0  0  0  0  0
   -6.0000    0.0000    0.0000 C   0  0  0  0  0  0  0  0  0  0  0  0
   -7.5000    0.0000    0.0000 C   0  0  0  0  0  0  0  0  0  0  0  0
   -8.2500   -1.2990    0.0000 C   0  0  0  0  0  0  0  0  0  0  0  0
   -9.7500   -1.2990    0.0000 C   0  0  0  0  0  0  0  0  0  0  0  0
   -9.7500    0.2010    0.0000 C   0  0  0  0  0  0  0  0  0  0  0  0
   -9.7500    1.7010    0.0000 N   0  0  0  0  0  0  0  0  0  0  0  0
   -9.7500   -2.7990    0.0000 C   0  0  0  0  0  0  0  0  0  0  0  0
  -11.0490   -3.5490    0.0000 C   0  0  0  0  0  0  0  0  0  0  0  0
  -11.0490   -5.0490    0.0000 C   0  0  0  0  0  0  0  0  0  0  0  0
   -9.7500   -5.7990    0.0000 C   0  0  0  0  0  0  0  0  0  0  0  0
   -9.7500   -7.2990    0.0000 O   0  0  0  0  0  0  0  0  0  0  0  0
  -11.0490   -8.0490    0.0000 C   0  0  0  0  0  0  0  0  0  0  0  0
   -8.4510   -5.0490    0.0000 C   0  0  0  0  0  0  0  0  0  0  0  0
   -7.1519   -5.7990    0.0000 O   0  0  0  0  0  0  0  0  0  0  0  0
   -5.8529   -5.0490    0.0000 C   0  0  0  0  0  0  0  0  0  0  0  0
   -8.4510   -3.5490    0.0000 C   0  0  0  0  0  0  0  0  0  0  0  0
  -11.2500   -1.2990    0.0000 C   0  0  0  0  0  0  0  0  0  0  0  0
  -12.0000    0.0000    0.0000 C   0  0  0  0  0  0  0  0  0  0  0  0
  -12.0000   -2.5981    0.0000 C   0  0  0  0  0  0  0  0  0  0  0  0
   -0.7500    1.2990    0.0000 C   0  0  0  0  0  0  0  0  0  0  0  0
    0.7500    1.2990    0.0000 C   0  0  0  0  0  0  0  0  0  0  0  0
    1.5000    2.5981    0.0000 O   0  0  0  0  0  0  0  0  0  0  0  0
    0.7500    3.8971    0.0000 C   0  0  0  0  0  0  0  0  0  0  0  0
  1  2  1  0
  2  3  1  0
  3  4  2  0
  4  5  1  0
  5  6  2  0
  6  7  1  0
  7  8  1  0
  8  9  1  0
  9 10  1  0
  9 11  1  0
 11 12  1  0
 12 13  1  0
 13 14  1  0
 14 15  1  0
 15 16  3  0
 14 17  1  0
 17 18  2  0
 18 19  1  0
 19 20  2  0
 20 21  1  0
 21 22  1  0
 20 23  1  0
 23 24  1  0
 24 25  1  0
 23 26  2  0
 14 27  1  0
 27 28  1  0
 27 29  1  0
  6 30  1  0
 30 31  2  0
 31 32  1  0
 32 33  1  0
 31  3  1  0
 26 17  1  0
M  END
>  <assay_description>  (43) 
Inhibition of OATP1B1 (unknown origin) expressed in HEK293 cells using estradiol-17beta-glucuronide substrate

>  <molecule_pref_name>  (43) 
VERAPAMIL

>  <canonical_smiles>  (43) 
COc1ccc(CCN(C)CCCC(C#N)(c2ccc(OC)c(OC)c2)C(C)C)cc1OC

>  <pchembl_value>  (43) 
4.50

>  <standard_type>  (43) 
IC50

>  <standard_relation>  (43) 
=

>  <standard_value>  (43) 
32000.0

>  <standard_units>  (43) 
nM

>  <target_pref_name>  (43) 
Solute carrier organic anion transporter family member 1B1

>  <target_organism>  (43) 
Homo sapiens

$$$$
CHEMBL472
     RDKit          2D

 33 35  0  0  0  0  0  0  0  0999 V2000
    3.7500   -1.2990    0.0000 C   0  0  0  0  0  0  0  0  0  0  0  0
    3.0000    0.0000    0.0000 O   0  0  0  0  0  0  0  0  0  0  0  0
    1.5000    0.0000    0.0000 C   0  0  0  0  0  0  0  0  0  0  0  0
    0.7500   -1.2990    0.0000 C   0  0  0  0  0  0  0  0  0  0  0  0
   -0.7500   -1.2990    0.0000 C   0  0  0  0  0  0  0  0  0  0  0  0
   -1.5000    0.0000    0.0000 C   0  0  0  0  0  0  0  0  0  0  0  0
   -3.0000    0.0000    0.0000 Cl  0  0  0  0  0  0  0  0  0  0  0  0
   -0.7500    1.2990    0.0000 C   0  0  0  0  0  0  0  0  0  0  0  0
    0.7500    1.2990    0.0000 C   0  0  0  0  0  0  0  0  0  0  0  0
    1.5000    2.5981    0.0000 C   0  0  0  0  0  0  0  0  0  0  0  0
    0.7500    3.8971    0.0000 O   0  0  0  0  0  0  0  0  0  0  0  0
    3.0000    2.5981    0.0000 N   0  0  0  0  0  0  0  0  0  0  0  0
    3.7500    3.8971    0.0000 C   0  0  0  0  0  0  0  0  0  0  0  0
    5.2500    3.8971    0.0000 C   0  0  0  0  0  0  0  0  0  0  0  0
    6.0000    5.1962    0.0000 C   0  0  0  0  0  0  0  0  0  0  0  0
    7.5000    5.1962    0.0000 C   0  0  0  0  0  0  0  0  0  0  0  0
    8.2500    6.4952    0.0000 C   0  0  0  0  0  0  0  0  0  0  0  0
    7.5000    7.7942    0.0000 C   0  0  0  0  0  0  0  0  0  0  0  0
    8.2500    9.0933    0.0000 S   0  0  0  0  0  0  0  0  0  0  0  0
    9.5490    8.3433    0.0000 O   0  0  0  0  0  0  0  0  0  0  0  0
    6.9510    9.8433    0.0000 O   0  0  0  0  0  0  0  0  0  0  0  0
    9.0000   10.3923    0.0000 N   0  0  0  0  0  0  0  0  0  0  0  0
    8.2500   11.6913    0.0000 C   0  0  0  0  0  0  0  0  0  0  0  0
    6.7500   11.6913    0.0000 O   0  0  0  0  0  0  0  0  0  0  0  0
    9.0000   12.9904    0.0000 N   0  0  0  0  0  0  0  0  0  0  0  0
    8.2500   14.2894    0.0000 C   0  0  0  0  0  0  0  0  0  0  0  0
    9.0000   15.5885    0.0000 C   0  0  0  0  0  0  0  0  0  0  0  0
    8.2500   16.8875    0.0000 C   0  0  0  0  0  0  0  0  0  0  0  0
    6.7500   16.8875    0.0000 C   0  0  0  0  0  0  0  0  0  0  0  0
    6.0000   15.5885    0.0000 C   0  0  0  0  0  0  0  0  0  0  0  0
    6.7500   14.2894    0.0000 C   0  0  0  0  0  0  0  0  0  0  0  0
    6.0000    7.7942    0.0000 C   0  0  0  0  0  0  0  0  0  0  0  0
    5.2500    6.4952    0.0000 C   0  0  0  0  0  0  0  0  0  0  0  0
  1  2  1  0
  2  3  1  0
  3  4  2  0
  4  5  1  0
  5  6  2  0
  6  7  1  0
  6  8  1  0
  8  9  2  0
  9 10  1  0
 10 11  2  0
 10 12  1  0
 12 13  1  0
 13 14  1  0
 14 15  1  0
 15 16  2  0
 16 17  1  0
 17 18  2  0
 18 19  1  0
 19 20  2  0
 19 21  2  0
 19 22  1  0
 22 23  1  0
 23 24  2  0
 23 25  1  0
 25 26  1  0
 26 27  1  0
 27 28  1  0
 28 29  1  0
 29 30  1  0
 30 31  1  0
 18 32  1  0
 32 33  2  0
  9  3  1  0
 33 15  1  0
 31 26  1  0
M  END
>  <assay_description>  (44) 
Inhibition of OATP1B1 (unknown origin) expressed in HEK293 cells using estradiol-17beta-glucuronide substrate

>  <molecule_pref_name>  (44) 
GLYBURIDE

>  <canonical_smiles>  (44) 
COc1ccc(Cl)cc1C(=O)NCCc1ccc(S(=O)(=O)NC(=O)NC2CCCCC2)cc1

>  <pchembl_value>  (44) 
5.85

>  <standard_type>  (44) 
IC50

>  <standard_relation>  (44) 
=

>  <standard_value>  (44) 
1400.0

>  <standard_units>  (44) 
nM

>  <target_pref_name>  (44) 
Solute carrier organic anion transporter family member 1B1

>  <target_organism>  (44) 
Homo sapiens

$$$$
CHEMBL1487
     RDKit          2D

 41 44  0  0  0  0  0  0  0  0999 V2000
    5.4627   -4.5501    0.0000 C   0  0  0  0  0  0  0  0  0  0  0  0
    3.9955   -4.2382    0.0000 C   0  0  0  0  0  0  0  0  0  0  0  0
    3.5320   -2.8116    0.0000 C   0  0  0  0  0  0  0  0  0  0  0  0
    2.9918   -5.3529    0.0000 C   0  0  0  0  0  0  0  0  0  0  0  0
    1.5000   -5.1962    0.0000 C   0  0  0  0  0  0  0  0  0  0  0  0
    0.7500   -3.8971    0.0000 C   0  0  0  0  0  0  0  0  0  0  0  0
   -0.7500   -3.8971    0.0000 O   0  0  0  0  0  0  0  0  0  0  0  0
    1.5000   -2.5981    0.0000 N   0  0  0  0  0  0  0  0  0  0  0  0
    0.7500   -1.2990    0.0000 C   0  0  0  0  0  0  0  0  0  0  0  0
    1.5000    0.0000    0.0000 C   0  0  0  0  0  0  0  0  0  0  0  0
    0.7500    1.2990    0.0000 C   0  0  0  0  0  0  0  0  0  0  0  0
   -0.7500    1.2990    0.0000 C   0  0  0  0  0  0  0  0  0  0  0  0
   -1.5000    0.0000    0.0000 C   0  0  0  0  0  0  0  0  0  0  0  0
   -0.7500   -1.2990    0.0000 C   0  0  0  0  0  0  0  0  0  0  0  0
    0.8899   -6.5665    0.0000 C   0  0  0  0  0  0  0  0  0  0  0  0
   -0.5773   -6.8783    0.0000 C   0  0  0  0  0  0  0  0  0  0  0  0
   -1.5810   -5.7636    0.0000 C   0  0  0  0  0  0  0  0  0  0  0  0
   -3.0482   -6.0755    0.0000 C   0  0  0  0  0  0  0  0  0  0  0  0
   -3.5118   -7.5021    0.0000 C   0  0  0  0  0  0  0  0  0  0  0  0
   -2.5081   -8.6168    0.0000 C   0  0  0  0  0  0  0  0  0  0  0  0
   -1.0409   -8.3049    0.0000 C   0  0  0  0  0  0  0  0  0  0  0  0
    2.0046   -7.5702    0.0000 C   0  0  0  0  0  0  0  0  0  0  0  0
    1.8478   -9.0619    0.0000 C   0  0  0  0  0  0  0  0  0  0  0  0
    0.4775   -9.6721    0.0000 C   0  0  0  0  0  0  0  0  0  0  0  0
    0.3207  -11.1638    0.0000 C   0  0  0  0  0  0  0  0  0  0  0  0
    1.5342  -12.0455    0.0000 C   0  0  0  0  0  0  0  0  0  0  0  0
    1.3774  -13.5373    0.0000 F   0  0  0  0  0  0  0  0  0  0  0  0
    2.9046  -11.4354    0.0000 C   0  0  0  0  0  0  0  0  0  0  0  0
    3.0613   -9.9436    0.0000 C   0  0  0  0  0  0  0  0  0  0  0  0
    3.3037   -6.8202    0.0000 N   0  0  0  0  0  0  0  0  0  0  0  0
    4.6740   -7.4303    0.0000 C   0  0  0  0  0  0  0  0  0  0  0  0
    5.8875   -6.5486    0.0000 C   0  0  0  0  0  0  0  0  0  0  0  0
    7.2578   -7.1587    0.0000 C   0  0  0  0  0  0  0  0  0  0  0  0
    7.4146   -8.6505    0.0000 O   0  0  0  0  0  0  0  0  0  0  0  0
    8.4713   -6.2770    0.0000 C   0  0  0  0  0  0  0  0  0  0  0  0
    9.8417   -6.8871    0.0000 C   0  0  0  0  0  0  0  0  0  0  0  0
    9.9984   -8.3789    0.0000 O   0  0  0  0  0  0  0  0  0  0  0  0
   11.0552   -6.0054    0.0000 C   0  0  0  0  0  0  0  0  0  0  0  0
   12.4255   -6.6156    0.0000 C   0  0  0  0  0  0  0  0  0  0  0  0
   12.5823   -8.1073    0.0000 O   0  0  0  0  0  0  0  0  0  0  0  0
   13.6390   -5.7339    0.0000 O   0  0  0  0  0  0  0  0  0  0  0  0
  1  2  1  0
  2  3  1  0
  2  4  1  0
  4  5  2  0
  5  6  1  0
  6  7  2  0
  6  8  1  0
  8  9  1  0
  9 10  2  0
 10 11  1  0
 11 12  2  0
 12 13  1  0
 13 14  2  0
  5 15  1  0
 15 16  1  0
 16 17  2  0
 17 18  1  0
 18 19  2  0
 19 20  1  0
 20 21  2  0
 15 22  2  0
 22 23  1  0
 23 24  2  0
 24 25  1  0
 25 26  2  0
 26 27  1  0
 26 28  1  0
 28 29  2  0
 22 30  1  0
 30 31  1  0
 31 32  1  0
 32 33  1  0
 33 34  1  6
 33 35  1  0
 35 36  1  0
 36 37  1  6
 36 38  1  0
 38 39  1  0
 39 40  2  0
 39 41  1  0
 30  4  1  0
 14  9  1  0
 21 16  1  0
 29 23  1  0
M  END
>  <assay_description>  (45) 
Inhibition of OATP1B1 (unknown origin) expressed in HEK293 cells using estradiol-17beta-glucuronide substrate

>  <molecule_pref_name>  (45) 
ATORVASTATIN

>  <canonical_smiles>  (45) 
CC(C)c1c(C(=O)Nc2ccccc2)c(-c2ccccc2)c(-c2ccc(F)cc2)n1CC[C@@H](O)C[C@@H](O)CC(=O)O

>  <pchembl_value>  (45) 
6.22

>  <standard_type>  (45) 
IC50

>  <standard_relation>  (45) 
=

>  <standard_value>  (45) 
600.0

>  <standard_units>  (45) 
nM

>  <target_pref_name>  (45) 
Solute carrier organic anion transporter family member 1B1

>  <target_organism>  (45) 
Homo sapiens

$$$$
CHEMBL457
     RDKit          2D

 18 18  0  0  0  0  0  0  0  0999 V2000
    3.0000    0.0000    0.0000 C   0  0  0  0  0  0  0  0  0  0  0  0
    1.5000    0.0000    0.0000 C   0  0  0  0  0  0  0  0  0  0  0  0
    0.7500   -1.2990    0.0000 C   0  0  0  0  0  0  0  0  0  0  0  0
   -0.7500   -1.2990    0.0000 C   0  0  0  0  0  0  0  0  0  0  0  0
   -1.5000    0.0000    0.0000 C   0  0  0  0  0  0  0  0  0  0  0  0
   -3.0000    0.0000    0.0000 C   0  0  0  0  0  0  0  0  0  0  0  0
   -0.7500    1.2990    0.0000 C   0  0  0  0  0  0  0  0  0  0  0  0
   -1.5000    2.5981    0.0000 O   0  0  0  0  0  0  0  0  0  0  0  0
   -0.7500    3.8971    0.0000 C   0  0  0  0  0  0  0  0  0  0  0  0
   -1.5000    5.1962    0.0000 C   0  0  0  0  0  0  0  0  0  0  0  0
   -0.7500    6.4952    0.0000 C   0  0  0  0  0  0  0  0  0  0  0  0
   -1.5000    7.7942    0.0000 C   0  0  0  0  0  0  0  0  0  0  0  0
   -2.7990    7.0442    0.0000 C   0  0  0  0  0  0  0  0  0  0  0  0
   -0.2010    8.5442    0.0000 C   0  0  0  0  0  0  0  0  0  0  0  0
   -2.2500    9.0933    0.0000 C   0  0  0  0  0  0  0  0  0  0  0  0
   -1.5000   10.3923    0.0000 O   0  0  0  0  0  0  0  0  0  0  0  0
   -3.7500    9.0933    0.0000 O   0  0  0  0  0  0  0  0  0  0  0  0
    0.7500    1.2990    0.0000 C   0  0  0  0  0  0  0  0  0  0  0  0
  1  2  1  0
  2  3  2  0
  3  4  1  0
  4  5  2  0
  5  6  1  0
  5  7  1  0
  7  8  1  0
  8  9  1  0
  9 10  1  0
 10 11  1  0
 11 12  1  0
 12 13  1  0
 12 14  1  0
 12 15  1  0
 15 16  2  0
 15 17  1  0
  7 18  2  0
 18  2  1  0
M  END
>  <assay_description>  (46) 
Inhibition of OATP1B1 (unknown origin) expressed in HEK293 cells using estradiol-17beta-glucuronide substrate

>  <molecule_pref_name>  (46) 
GEMFIBROZIL

>  <canonical_smiles>  (46) 
Cc1ccc(C)c(OCCCC(C)(C)C(=O)O)c1

>  <pchembl_value>  (46) 
4.96

>  <standard_type>  (46) 
IC50

>  <standard_relation>  (46) 
=

>  <standard_value>  (46) 
11000.0

>  <standard_units>  (46) 
nM

>  <target_pref_name>  (46) 
Solute carrier organic anion transporter family member 1B1

>  <target_organism>  (46) 
Homo sapiens

$$$$
CHEMBL160
     RDKit          2D

 85 85  0  0  0  0  0  0  0  0999 V2000
   12.3901   -5.1962    0.0000 C   0  0  0  0  0  0  0  0  0  0  0  0
   11.6401   -3.8971    0.0000 C   0  0  0  0  0  0  0  0  0  0  0  0
   10.1401   -3.8971    0.0000 C   0  0  0  0  0  0  0  0  0  0  0  0
    9.3901   -2.5981    0.0000 C   0  0  0  0  0  0  0  0  0  0  0  0
   10.1401   -1.2990    0.0000 C   0  0  0  0  0  0  0  0  0  0  0  0
   11.6401   -1.2990    0.0000 C   0  0  0  0  0  0  0  0  0  0  0  0
    9.3901    0.0000    0.0000 C   0  0  0  0  0  0  0  0  0  0  0  0
   10.1401    1.2990    0.0000 O   0  0  0  0  0  0  0  0  0  0  0  0
    7.8901    0.0000    0.0000 C   0  0  0  0  0  0  0  0  0  0  0  0
    7.7475    1.4932    0.0000 C   0  0  0  0  0  0  0  0  0  0  0  0
    9.2204    1.7771    0.0000 O   0  0  0  0  0  0  0  0  0  0  0  0
    7.3249    2.9324    0.0000 N   0  0  0  0  0  0  0  0  0  0  0  0
    6.6376    4.2657    0.0000 C   0  0  0  0  0  0  0  0  0  0  0  0
    7.8994    5.0767    0.0000 C   0  0  0  0  0  0  0  0  0  0  0  0
    9.2327    4.3893    0.0000 C   0  0  0  0  0  0  0  0  0  0  0  0
    5.7103    5.4448    0.0000 C   0  0  0  0  0  0  0  0  0  0  0  0
    6.7959    6.4799    0.0000 O   0  0  0  0  0  0  0  0  0  0  0  0
    4.5767    6.4271    0.0000 N   0  0  0  0  0  0  0  0  0  0  0  0
    5.4468    7.6489    0.0000 C   0  0  0  0  0  0  0  0  0  0  0  0
    3.2777    7.1771    0.0000 C   0  0  0  0  0  0  0  0  0  0  0  0
    1.8602    7.6677    0.0000 C   0  0  0  0  0  0  0  0  0  0  0  0
    2.2138    9.1254    0.0000 O   0  0  0  0  0  0  0  0  0  0  0  0
    0.3754    7.8811    0.0000 N   0  0  0  0  0  0  0  0  0  0  0  0
    0.4468    9.3794    0.0000 C   0  0  0  0  0  0  0  0  0  0  0  0
   -1.1229    7.8098    0.0000 C   0  0  0  0  0  0  0  0  0  0  0  0
   -1.3363    9.2945    0.0000 C   0  0  0  0  0  0  0  0  0  0  0  0
   -0.1573   10.2217    0.0000 C   0  0  0  0  0  0  0  0  0  0  0  0
   -0.3707   11.7065    0.0000 C   0  0  0  0  0  0  0  0  0  0  0  0
    1.2353    9.6642    0.0000 C   0  0  0  0  0  0  0  0  0  0  0  0
   -2.5806    7.4561    0.0000 C   0  0  0  0  0  0  0  0  0  0  0  0
   -3.0712    8.8736    0.0000 O   0  0  0  0  0  0  0  0  0  0  0  0
   -3.9450    6.8330    0.0000 N   0  0  0  0  0  0  0  0  0  0  0  0
   -5.1669    5.9629    0.0000 C   0  0  0  0  0  0  0  0  0  0  0  0
   -6.1492    7.0966    0.0000 C   0  0  0  0  0  0  0  0  0  0  0  0
   -5.6586    8.5141    0.0000 C   0  0  0  0  0  0  0  0  0  0  0  0
   -7.6221    6.8127    0.0000 C   0  0  0  0  0  0  0  0  0  0  0  0
   -6.2020    4.8773    0.0000 C   0  0  0  0  0  0  0  0  0  0  0  0
   -7.3811    5.8046    0.0000 O   0  0  0  0  0  0  0  0  0  0  0  0
   -7.0130    3.6154    0.0000 N   0  0  0  0  0  0  0  0  0  0  0  0
   -8.3462    4.3028    0.0000 C   0  0  0  0  0  0  0  0  0  0  0  0
   -7.5705    2.2229    0.0000 C   0  0  0  0  0  0  0  0  0  0  0  0
   -9.0097    2.6455    0.0000 C   0  0  0  0  0  0  0  0  0  0  0  0
   -9.3634    4.1032    0.0000 C   0  0  0  0  0  0  0  0  0  0  0  0
  -10.8026    4.5258    0.0000 C   0  0  0  0  0  0  0  0  0  0  0  0
   -8.2778    5.1383    0.0000 C   0  0  0  0  0  0  0  0  0  0  0  0
   -7.8544    0.7500    0.0000 C   0  0  0  0  0  0  0  0  0  0  0  0
   -9.3476    0.8926    0.0000 O   0  0  0  0  0  0  0  0  0  0  0  0
   -7.8544   -0.7500    0.0000 N   0  0  0  0  0  0  0  0  0  0  0  0
   -7.5705   -2.2229    0.0000 C   0  0  0  0  0  0  0  0  0  0  0  0
   -9.0097   -2.6455    0.0000 C   0  0  0  0  0  0  0  0  0  0  0  0
   -7.0130   -3.6154    0.0000 C   0  0  0  0  0  0  0  0  0  0  0  0
   -8.3462   -4.3028    0.0000 O   0  0  0  0  0  0  0  0  0  0  0  0
   -6.2020   -4.8773    0.0000 N   0  0  0  0  0  0  0  0  0  0  0  0
   -5.1669   -5.9629    0.0000 C   0  0  0  0  0  0  0  0  0  0  0  0
   -6.1492   -7.0966    0.0000 C   0  0  0  0  0  0  0  0  0  0  0  0
   -3.9450   -6.8330    0.0000 C   0  0  0  0  0  0  0  0  0  0  0  0
   -4.6950   -8.1320    0.0000 O   0  0  0  0  0  0  0  0  0  0  0  0
   -2.5806   -7.4561    0.0000 N   0  0  0  0  0  0  0  0  0  0  0  0
   -3.0712   -8.8736    0.0000 C   0  0  0  0  0  0  0  0  0  0  0  0
   -1.1229   -7.8098    0.0000 C   0  0  0  0  0  0  0  0  0  0  0  0
   -1.3363   -9.2945    0.0000 C   0  0  0  0  0  0  0  0  0  0  0  0
   -2.7289   -9.8520    0.0000 C   0  0  0  0  0  0  0  0  0  0  0  0
   -2.9424  -11.3367    0.0000 C   0  0  0  0  0  0  0  0  0  0  0  0
   -3.9080   -8.9248    0.0000 C   0  0  0  0  0  0  0  0  0  0  0  0
    0.3754   -7.8811    0.0000 C   0  0  0  0  0  0  0  0  0  0  0  0
    0.4468   -9.3794    0.0000 O   0  0  0  0  0  0  0  0  0  0  0  0
    1.8602   -7.6677    0.0000 N   0  0  0  0  0  0  0  0  0  0  0  0
    2.2138   -9.1254    0.0000 C   0  0  0  0  0  0  0  0  0  0  0  0
    3.2777   -7.1771    0.0000 C   0  0  0  0  0  0  0  0  0  0  0  0
    3.9008   -8.5415    0.0000 C   0  0  0  0  0  0  0  0  0  0  0  0
    3.0307   -9.7634    0.0000 C   0  0  0  0  0  0  0  0  0  0  0  0
    3.6538  -11.1278    0.0000 C   0  0  0  0  0  0  0  0  0  0  0  0
    1.5375   -9.6208    0.0000 C   0  0  0  0  0  0  0  0  0  0  0  0
    4.5767   -6.4271    0.0000 C   0  0  0  0  0  0  0  0  0  0  0  0
    5.4468   -7.6489    0.0000 O   0  0  0  0  0  0  0  0  0  0  0  0
    5.7103   -5.4448    0.0000 N   0  0  0  0  0  0  0  0  0  0  0  0
    6.7959   -6.4799    0.0000 C   0  0  0  0  0  0  0  0  0  0  0  0
    6.6376   -4.2657    0.0000 C   0  0  0  0  0  0  0  0  0  0  0  0
    7.8994   -5.0767    0.0000 C   0  0  0  0  0  0  0  0  0  0  0  0
    7.8281   -6.5750    0.0000 C   0  0  0  0  0  0  0  0  0  0  0  0
    9.2327   -4.3893    0.0000 C   0  0  0  0  0  0  0  0  0  0  0  0
    7.3249   -2.9324    0.0000 C   0  0  0  0  0  0  0  0  0  0  0  0
    8.7175   -3.4899    0.0000 O   0  0  0  0  0  0  0  0  0  0  0  0
    7.7475   -1.4932    0.0000 N   0  0  0  0  0  0  0  0  0  0  0  0
    9.2204   -1.7771    0.0000 C   0  0  0  0  0  0  0  0  0  0  0  0
  1  2  1  0
  2  3  2  0
  3  4  1  0
  4  5  1  0
  5  6  1  6
  5  7  1  0
  7  8  1  6
  7  9  1  0
  9 10  1  6
 10 11  2  0
 10 12  1  0
 12 13  1  0
 13 14  1  6
 14 15  1  0
 13 16  1  0
 16 17  2  0
 16 18  1  0
 18 19  1  0
 18 20  1  0
 20 21  1  0
 21 22  2  0
 21 23  1  0
 23 24  1  0
 23 25  1  0
 25 26  1  6
 26 27  1  0
 27 28  1  0
 27 29  1  0
 25 30  1  0
 30 31  2  0
 30 32  1  0
 32 33  1  0
 33 34  1  6
 34 35  1  0
 34 36  1  0
 33 37  1  0
 37 38  2  0
 37 39  1  0
 39 40  1  0
 39 41  1  0
 41 42  1  6
 42 43  1  0
 43 44  1  0
 43 45  1  0
 41 46  1  0
 46 47  2  0
 46 48  1  0
 48 49  1  0
 49 50  1  6
 49 51  1  0
 51 52  2  0
 51 53  1  0
 53 54  1  0
 54 55  1  1
 54 56  1  0
 56 57  2  0
 56 58  1  0
 58 59  1  0
 58 60  1  0
 60 61  1  6
 61 62  1  0
 62 63  1  0
 62 64  1  0
 60 65  1  0
 65 66  2  0
 65 67  1  0
 67 68  1  0
 67 69  1  0
 69 70  1  6
 70 71  1  0
 71 72  1  0
 71 73  1  0
 69 74  1  0
 74 75  2  0
 74 76  1  0
 76 77  1  0
 76 78  1  0
 78 79  1  6
 79 80  1  0
 79 81  1  0
 78 82  1  0
 82 83  2  0
 82 84  1  0
 84 85  1  0
 84  9  1  0
M  END
>  <assay_description>  (47) 
Inhibition of OATP1B1 (unknown origin) expressed in HEK293 cells using pitavastatin substrate

>  <molecule_pref_name>  (47) 
CYCLOSPORINE

>  <canonical_smiles>  (47) 
C/C=C/C[C@@H](C)[C@@H](O)[C@H]1C(=O)N[C@@H](CC)C(=O)N(C)CC(=O)N(C)[C@@H](CC(C)C)C(=O)N[C@@H](C(C)C)C(=O)N(C)[C@@H](CC(C)C)C(=O)N[C@@H](C)C(=O)N[C@H](C)C(=O)N(C)[C@@H](CC(C)C)C(=O)N(C)[C@@H](CC(C)C)C(=O)N(C)[C@@H](C(C)C)C(=O)N1C

>  <pchembl_value>  (47) 
6.16

>  <standard_type>  (47) 
IC50

>  <standard_relation>  (47) 
=

>  <standard_value>  (47) 
700.0

>  <standard_units>  (47) 
nM

>  <target_pref_name>  (47) 
Solute carrier organic anion transporter family member 1B1

>  <target_organism>  (47) 
Homo sapiens

$$$$
CHEMBL163
     RDKit          2D

 50 53  0  0  0  0  0  0  0  0999 V2000
   -9.3308    3.7259    0.0000 C   0  0  0  0  0  0  0  0  0  0  0  0
   -9.1740    2.2341    0.0000 C   0  0  0  0  0  0  0  0  0  0  0  0
  -10.3875    1.3524    0.0000 C   0  0  0  0  0  0  0  0  0  0  0  0
   -7.8037    1.6240    0.0000 C   0  0  0  0  0  0  0  0  0  0  0  0
   -7.4918    0.1568    0.0000 N   0  0  0  0  0  0  0  0  0  0  0  0
   -6.0000    0.0000    0.0000 C   0  0  0  0  0  0  0  0  0  0  0  0
   -5.2500   -1.2990    0.0000 C   0  0  0  0  0  0  0  0  0  0  0  0
   -6.0000   -2.5981    0.0000 N   0  0  0  0  0  0  0  0  0  0  0  0
   -7.5000   -2.5981    0.0000 C   0  0  0  0  0  0  0  0  0  0  0  0
   -5.2500   -3.8971    0.0000 C   0  0  0  0  0  0  0  0  0  0  0  0
   -6.0000   -5.1962    0.0000 O   0  0  0  0  0  0  0  0  0  0  0  0
   -3.7500   -3.8971    0.0000 N   0  0  0  0  0  0  0  0  0  0  0  0
   -3.0000   -5.1962    0.0000 C   0  0  0  0  0  0  0  0  0  0  0  0
   -1.5000   -5.1962    0.0000 C   0  0  0  0  0  0  0  0  0  0  0  0
   -0.7500   -6.4952    0.0000 O   0  0  0  0  0  0  0  0  0  0  0  0
   -0.7500   -3.8971    0.0000 N   0  0  0  0  0  0  0  0  0  0  0  0
    0.7500   -3.8971    0.0000 C   0  0  0  0  0  0  0  0  0  0  0  0
    1.5000   -2.5981    0.0000 C   0  0  0  0  0  0  0  0  0  0  0  0
    0.7500   -1.2990    0.0000 C   0  0  0  0  0  0  0  0  0  0  0  0
    1.5000    0.0000    0.0000 C   0  0  0  0  0  0  0  0  0  0  0  0
    0.7500    1.2990    0.0000 C   0  0  0  0  0  0  0  0  0  0  0  0
   -0.7500    1.2990    0.0000 C   0  0  0  0  0  0  0  0  0  0  0  0
   -1.5000    0.0000    0.0000 C   0  0  0  0  0  0  0  0  0  0  0  0
   -0.7500   -1.2990    0.0000 C   0  0  0  0  0  0  0  0  0  0  0  0
    1.5000   -5.1962    0.0000 C   0  0  0  0  0  0  0  0  0  0  0  0
    3.0000   -5.1962    0.0000 C   0  0  0  0  0  0  0  0  0  0  0  0
    3.7500   -3.8971    0.0000 O   0  0  0  0  0  0  0  0  0  0  0  0
    3.7500   -6.4952    0.0000 C   0  0  0  0  0  0  0  0  0  0  0  0
    5.2500   -6.4952    0.0000 C   0  0  0  0  0  0  0  0  0  0  0  0
    6.0000   -7.7942    0.0000 C   0  0  0  0  0  0  0  0  0  0  0  0
    7.5000   -7.7942    0.0000 C   0  0  0  0  0  0  0  0  0  0  0  0
    8.2500   -9.0933    0.0000 C   0  0  0  0  0  0  0  0  0  0  0  0
    7.5000  -10.3923    0.0000 C   0  0  0  0  0  0  0  0  0  0  0  0
    6.0000  -10.3923    0.0000 C   0  0  0  0  0  0  0  0  0  0  0  0
    5.2500   -9.0933    0.0000 C   0  0  0  0  0  0  0  0  0  0  0  0
    3.0000   -7.7942    0.0000 N   0  0  0  0  0  0  0  0  0  0  0  0
    1.5000   -7.7942    0.0000 C   0  0  0  0  0  0  0  0  0  0  0  0
    0.7500   -6.4952    0.0000 O   0  0  0  0  0  0  0  0  0  0  0  0
    0.7500   -9.0933    0.0000 O   0  0  0  0  0  0  0  0  0  0  0  0
   -0.7500   -9.0933    0.0000 C   0  0  0  0  0  0  0  0  0  0  0  0
   -1.5000  -10.3923    0.0000 C   0  0  0  0  0  0  0  0  0  0  0  0
   -0.8899  -11.7626    0.0000 C   0  0  0  0  0  0  0  0  0  0  0  0
   -2.0046  -12.7663    0.0000 N   0  0  0  0  0  0  0  0  0  0  0  0
   -3.3037  -12.0163    0.0000 C   0  0  0  0  0  0  0  0  0  0  0  0
   -2.9918  -10.5491    0.0000 S   0  0  0  0  0  0  0  0  0  0  0  0
   -3.7500   -6.4952    0.0000 C   0  0  0  0  0  0  0  0  0  0  0  0
   -5.2500   -6.4952    0.0000 C   0  0  0  0  0  0  0  0  0  0  0  0
   -3.0000   -7.7942    0.0000 C   0  0  0  0  0  0  0  0  0  0  0  0
   -5.3899    1.3703    0.0000 C   0  0  0  0  0  0  0  0  0  0  0  0
   -6.5046    2.3740    0.0000 S   0  0  0  0  0  0  0  0  0  0  0  0
  1  2  1  0
  2  3  1  0
  2  4  1  0
  4  5  2  0
  5  6  1  0
  6  7  1  0
  7  8  1  0
  8  9  1  0
  8 10  1  0
 10 11  2  0
 10 12  1  0
 13 12  1  6
 13 14  1  0
 14 15  2  0
 14 16  1  0
 16 17  1  0
 17 18  1  1
 18 19  1  0
 19 20  2  0
 20 21  1  0
 21 22  2  0
 22 23  1  0
 23 24  2  0
 17 25  1  0
 25 26  1  0
 26 27  1  6
 26 28  1  0
 28 29  1  6
 29 30  1  0
 30 31  2  0
 31 32  1  0
 32 33  2  0
 33 34  1  0
 34 35  2  0
 28 36  1  0
 36 37  1  0
 37 38  2  0
 37 39  1  0
 39 40  1  0
 40 41  1  0
 41 42  2  0
 42 43  1  0
 43 44  2  0
 44 45  1  0
 13 46  1  0
 46 47  1  0
 46 48  1  0
  6 49  2  0
 49 50  1  0
 50  4  1  0
 24 19  1  0
 35 30  1  0
 45 41  1  0
M  END
>  <assay_description>  (48) 
Inhibition of OATP1B1 (unknown origin) expressed in HEK293 cells using pitavastatin substrate

>  <molecule_pref_name>  (48) 
RITONAVIR

>  <canonical_smiles>  (48) 
CC(C)c1nc(CN(C)C(=O)N[C@H](C(=O)N[C@@H](Cc2ccccc2)C[C@H](O)[C@H](Cc2ccccc2)NC(=O)OCc2cncs2)C(C)C)cs1

>  <pchembl_value>  (48) 
6.00

>  <standard_type>  (48) 
IC50

>  <standard_relation>  (48) 
=

>  <standard_value>  (48) 
1000.0

>  <standard_units>  (48) 
nM

>  <target_pref_name>  (48) 
Solute carrier organic anion transporter family member 1B1

>  <target_organism>  (48) 
Homo sapiens

$$$$
CHEMBL374478
     RDKit          2D

 59 63  0  0  0  0  0  0  0  0999 V2000
    0.4940    8.3646    0.0000 C   0  0  0  0  0  0  0  0  0  0  0  0
   -1.0057    8.3332    0.0000 O   0  0  0  0  0  0  0  0  0  0  0  0
   -1.7283    7.0188    0.0000 C   0  0  0  0  0  0  0  0  0  0  0  0
   -0.5195    6.1307    0.0000 C   0  0  0  0  0  0  0  0  0  0  0  0
    0.4184    4.9601    0.0000 C   0  0  0  0  0  0  0  0  0  0  0  0
    1.0212    3.5866    0.0000 O   0  0  0  0  0  0  0  0  0  0  0  0
    0.3943    1.2135    0.0000 C   0  0  0  0  0  0  0  0  0  0  0  0
    0.8578    2.6401    0.0000 C   0  0  0  0  0  0  0  0  0  0  0  0
    1.2760    0.0000    0.0000 O   0  0  0  0  0  0  0  0  0  0  0  0
    0.3943   -1.2135    0.0000 C   0  0  0  0  0  0  0  0  0  0  0  0
    0.7062   -2.6807    0.0000 C   0  0  0  0  0  0  0  0  0  0  0  0
    2.1328   -3.1443    0.0000 C   0  0  0  0  0  0  0  0  0  0  0  0
   -0.4086   -3.6844    0.0000 C   0  0  0  0  0  0  0  0  0  0  0  0
   -0.0967   -5.1517    0.0000 O   0  0  0  0  0  0  0  0  0  0  0  0
   -1.8351   -3.2209    0.0000 C   0  0  0  0  0  0  0  0  0  0  0  0
   -2.9499   -4.2246    0.0000 C   0  0  0  0  0  0  0  0  0  0  0  0
   -2.6380   -5.6918    0.0000 O   0  0  0  0  0  0  0  0  0  0  0  0
   -4.3764   -3.7611    0.0000 C   0  0  0  0  0  0  0  0  0  0  0  0
   -4.6883   -2.2939    0.0000 C   0  0  0  0  0  0  0  0  0  0  0  0
   -6.1149   -1.8303    0.0000 C   0  0  0  0  0  0  0  0  0  0  0  0
   -6.4268   -0.3631    0.0000 N   0  0  0  0  0  0  0  0  0  0  0  0
   -7.8533    0.1004    0.0000 N   0  0  0  0  0  0  0  0  0  0  0  0
   -8.1652    1.5676    0.0000 C   0  0  0  0  0  0  0  0  0  0  0  0
   -9.5918    2.0312    0.0000 C   0  0  0  0  0  0  0  0  0  0  0  0
  -10.7065    1.0275    0.0000 N   0  0  0  0  0  0  0  0  0  0  0  0
  -12.1331    1.4910    0.0000 C   0  0  0  0  0  0  0  0  0  0  0  0
  -10.3946   -0.4398    0.0000 C   0  0  0  0  0  0  0  0  0  0  0  0
   -8.9681   -0.9033    0.0000 C   0  0  0  0  0  0  0  0  0  0  0  0
   -3.5736   -1.2902    0.0000 C   0  0  0  0  0  0  0  0  0  0  0  0
   -3.8855    0.1771    0.0000 O   0  0  0  0  0  0  0  0  0  0  0  0
   -2.1470   -1.7537    0.0000 C   0  0  0  0  0  0  0  0  0  0  0  0
   -1.0323   -0.7500    0.0000 C   0  0  0  0  0  0  0  0  0  0  0  0
   -1.0323    0.7500    0.0000 C   0  0  0  0  0  0  0  0  0  0  0  0
   -2.2458    1.6317    0.0000 O   0  0  0  0  0  0  0  0  0  0  0  0
   -5.8674   -3.5964    0.0000 N   0  0  0  0  0  0  0  0  0  0  0  0
   -7.2649   -3.0515    0.0000 C   0  0  0  0  0  0  0  0  0  0  0  0
   -7.9876   -4.3660    0.0000 O   0  0  0  0  0  0  0  0  0  0  0  0
   -8.4738   -2.1635    0.0000 C   0  0  0  0  0  0  0  0  0  0  0  0
   -9.5120   -3.2461    0.0000 C   0  0  0  0  0  0  0  0  0  0  0  0
   -9.4116   -0.9928    0.0000 C   0  0  0  0  0  0  0  0  0  0  0  0
  -10.0145    0.3807    0.0000 C   0  0  0  0  0  0  0  0  0  0  0  0
  -10.2413    1.8634    0.0000 C   0  0  0  0  0  0  0  0  0  0  0  0
  -10.0767    3.3544    0.0000 C   0  0  0  0  0  0  0  0  0  0  0  0
  -11.5334    3.7122    0.0000 C   0  0  0  0  0  0  0  0  0  0  0  0
   -9.5318    4.7519    0.0000 C   0  0  0  0  0  0  0  0  0  0  0  0
  -10.8462    5.4746    0.0000 O   0  0  0  0  0  0  0  0  0  0  0  0
   -8.6437    5.9608    0.0000 C   0  0  0  0  0  0  0  0  0  0  0  0
   -9.7263    6.9990    0.0000 C   0  0  0  0  0  0  0  0  0  0  0  0
   -7.4731    6.8986    0.0000 C   0  0  0  0  0  0  0  0  0  0  0  0
   -8.2501    8.1817    0.0000 O   0  0  0  0  0  0  0  0  0  0  0  0
   -6.0995    7.5015    0.0000 C   0  0  0  0  0  0  0  0  0  0  0  0
   -6.5180    8.9419    0.0000 C   0  0  0  0  0  0  0  0  0  0  0  0
   -4.6168    7.7283    0.0000 C   0  0  0  0  0  0  0  0  0  0  0  0
   -4.6482    9.2280    0.0000 O   0  0  0  0  0  0  0  0  0  0  0  0
   -3.3651   10.0050    0.0000 C   0  0  0  0  0  0  0  0  0  0  0  0
   -3.3965   11.5047    0.0000 C   0  0  0  0  0  0  0  0  0  0  0  0
   -1.9724    9.4480    0.0000 O   0  0  0  0  0  0  0  0  0  0  0  0
   -3.1259    7.5637    0.0000 C   0  0  0  0  0  0  0  0  0  0  0  0
   -2.5931    8.9659    0.0000 C   0  0  0  0  0  0  0  0  0  0  0  0
  1  2  1  0
  3  2  1  1
  3  4  1  0
  4  5  2  0
  5  6  1  0
  6  7  1  0
  7  8  1  6
  7  9  1  0
  9 10  1  0
 10 11  2  0
 11 12  1  0
 11 13  1  0
 13 14  1  0
 13 15  2  0
 15 16  1  0
 16 17  1  0
 16 18  2  0
 18 19  1  0
 19 20  1  0
 20 21  2  0
 21 22  1  0
 22 23  1  0
 23 24  1  0
 24 25  1  0
 25 26  1  0
 25 27  1  0
 27 28  1  0
 19 29  2  0
 29 30  1  0
 29 31  1  0
 31 32  2  0
 32 33  1  0
 33 34  2  0
 18 35  1  0
 35 36  1  0
 36 37  2  0
 36 38  1  0
 38 39  1  0
 38 40  2  0
 40 41  1  0
 41 42  2  0
 42 43  1  0
 43 44  1  6
 43 45  1  0
 45 46  1  6
 45 47  1  0
 47 48  1  1
 47 49  1  0
 49 50  1  1
 49 51  1  0
 51 52  1  1
 51 53  1  0
 53 54  1  6
 54 55  1  0
 55 56  1  0
 55 57  2  0
 53 58  1  0
 58 59  1  6
 58  3  1  0
 33  7  1  0
 32 10  1  0
 31 15  1  0
 28 22  1  0
M  END
>  <assay_description>  (49) 
Inhibition of OATP1B1 (unknown origin) expressed in HEK293 cells using pitavastatin substrate

>  <molecule_pref_name>  (49) 
RIFAMPIN

>  <canonical_smiles>  (49) 
CO[C@H]1/C=C/O[C@@]2(C)Oc3c(C)c(O)c4c(O)c(c(/C=N/N5CCN(C)CC5)c(O)c4c3C2=O)NC(=O)/C(C)=C\C=C\[C@H](C)[C@H](O)[C@@H](C)[C@@H](O)[C@@H](C)[C@H](OC(C)=O)[C@@H]1C

>  <pchembl_value>  (49) 
5.66

>  <standard_type>  (49) 
IC50

>  <standard_relation>  (49) 
=

>  <standard_value>  (49) 
2200.0

>  <standard_units>  (49) 
nM

>  <target_pref_name>  (49) 
Solute carrier organic anion transporter family member 1B1

>  <target_organism>  (49) 
Homo sapiens

$$$$
CHEMBL1064
     RDKit          2D

 30 32  0  0  0  0  0  0  0  0999 V2000
    7.5000   -2.5981    0.0000 C   0  0  0  0  0  0  0  0  0  0  0  0
    6.7500   -1.2990    0.0000 C   0  0  0  0  0  0  0  0  0  0  0  0
    5.2500   -1.2990    0.0000 C   0  0  0  0  0  0  0  0  0  0  0  0
    5.2500   -2.7990    0.0000 C   0  0  0  0  0  0  0  0  0  0  0  0
    5.2500    0.2010    0.0000 C   0  0  0  0  0  0  0  0  0  0  0  0
    3.7500   -1.2990    0.0000 C   0  0  0  0  0  0  0  0  0  0  0  0
    3.0000   -2.5981    0.0000 O   0  0  0  0  0  0  0  0  0  0  0  0
    3.0000    0.0000    0.0000 O   0  0  0  0  0  0  0  0  0  0  0  0
    1.5000    0.0000    0.0000 C   0  0  0  0  0  0  0  0  0  0  0  0
    0.7500   -1.2990    0.0000 C   0  0  0  0  0  0  0  0  0  0  0  0
   -0.7500   -1.2990    0.0000 C   0  0  0  0  0  0  0  0  0  0  0  0
   -1.5000   -2.5981    0.0000 C   0  0  0  0  0  0  0  0  0  0  0  0
   -1.5000    0.0000    0.0000 C   0  0  0  0  0  0  0  0  0  0  0  0
   -0.7500    1.2990    0.0000 C   0  0  0  0  0  0  0  0  0  0  0  0
   -1.5000    2.5981    0.0000 C   0  0  0  0  0  0  0  0  0  0  0  0
   -0.7500    3.8971    0.0000 C   0  0  0  0  0  0  0  0  0  0  0  0
    0.7500    3.8971    0.0000 C   0  0  0  0  0  0  0  0  0  0  0  0
    1.5000    5.1962    0.0000 C   0  0  0  0  0  0  0  0  0  0  0  0
    1.5000    2.5981    0.0000 C   0  0  0  0  0  0  0  0  0  0  0  0
    3.0000    2.5981    0.0000 C   0  0  0  0  0  0  0  0  0  0  0  0
    3.7500    1.2990    0.0000 C   0  0  0  0  0  0  0  0  0  0  0  0
    5.2500    1.2990    0.0000 C   0  0  0  0  0  0  0  0  0  0  0  0
    6.0000   -0.0000    0.0000 C   0  0  0  0  0  0  0  0  0  0  0  0
    7.5000   -0.0000    0.0000 C   0  0  0  0  0  0  0  0  0  0  0  0
    8.2500   -1.2990    0.0000 O   0  0  0  0  0  0  0  0  0  0  0  0
    8.2500    1.2990    0.0000 C   0  0  0  0  0  0  0  0  0  0  0  0
    7.5000    2.5981    0.0000 C   0  0  0  0  0  0  0  0  0  0  0  0
    8.2500    3.8971    0.0000 O   0  0  0  0  0  0  0  0  0  0  0  0
    6.0000    2.5981    0.0000 O   0  0  0  0  0  0  0  0  0  0  0  0
    0.7500    1.2990    0.0000 C   0  0  0  0  0  0  0  0  0  0  0  0
  1  2  1  0
  2  3  1  0
  3  4  1  0
  3  5  1  0
  3  6  1  0
  6  7  2  0
  6  8  1  0
  9  8  1  1
  9 10  1  0
 10 11  1  0
 11 12  1  1
 11 13  1  0
 13 14  2  0
 14 15  1  0
 15 16  2  0
 16 17  1  0
 17 18  1  6
 17 19  1  0
 19 20  1  6
 20 21  1  0
 22 21  1  1
 22 23  1  0
 23 24  1  0
 24 25  1  6
 24 26  1  0
 26 27  1  0
 27 28  2  0
 27 29  1  0
 19 30  1  0
 30  9  1  0
 30 14  1  1
 29 22  1  0
M  END
>  <assay_description>  (50) 
Inhibition of OATP1B1 (unknown origin) expressed in HEK293 cells using pitavastatin substrate

>  <molecule_pref_name>  (50) 
SIMVASTATIN

>  <canonical_smiles>  (50) 
CCC(C)(C)C(=O)O[C@H]1C[C@@H](C)C=C2C=C[C@H](C)[C@H](CC[C@@H]3C[C@@H](O)CC(=O)O3)[C@H]21

>  <pchembl_value>  (50) 
5.22

>  <standard_type>  (50) 
IC50

>  <standard_relation>  (50) 
=

>  <standard_value>  (50) 
6000.0

>  <standard_units>  (50) 
nM

>  <target_pref_name>  (50) 
Solute carrier organic anion transporter family member 1B1

>  <target_organism>  (50) 
Homo sapiens

$$$$
CHEMBL6966
     RDKit          2D

 33 34  0  0  0  0  0  0  0  0999 V2000
    3.7500   -1.2990    0.0000 C   0  0  0  0  0  0  0  0  0  0  0  0
    3.0000    0.0000    0.0000 O   0  0  0  0  0  0  0  0  0  0  0  0
    1.5000    0.0000    0.0000 C   0  0  0  0  0  0  0  0  0  0  0  0
    0.7500   -1.2990    0.0000 C   0  0  0  0  0  0  0  0  0  0  0  0
   -0.7500   -1.2990    0.0000 C   0  0  0  0  0  0  0  0  0  0  0  0
   -1.5000    0.0000    0.0000 C   0  0  0  0  0  0  0  0  0  0  0  0
   -3.0000    0.0000    0.0000 C   0  0  0  0  0  0  0  0  0  0  0  0
   -3.7500    1.2990    0.0000 C   0  0  0  0  0  0  0  0  0  0  0  0
   -5.2500    1.2990    0.0000 N   0  0  0  0  0  0  0  0  0  0  0  0
   -6.0000    2.5981    0.0000 C   0  0  0  0  0  0  0  0  0  0  0  0
   -6.0000    0.0000    0.0000 C   0  0  0  0  0  0  0  0  0  0  0  0
   -7.5000    0.0000    0.0000 C   0  0  0  0  0  0  0  0  0  0  0  0
   -8.2500   -1.2990    0.0000 C   0  0  0  0  0  0  0  0  0  0  0  0
   -9.7500   -1.2990    0.0000 C   0  0  0  0  0  0  0  0  0  0  0  0
   -9.7500    0.2010    0.0000 C   0  0  0  0  0  0  0  0  0  0  0  0
   -9.7500    1.7010    0.0000 N   0  0  0  0  0  0  0  0  0  0  0  0
   -9.7500   -2.7990    0.0000 C   0  0  0  0  0  0  0  0  0  0  0  0
  -11.0490   -3.5490    0.0000 C   0  0  0  0  0  0  0  0  0  0  0  0
  -11.0490   -5.0490    0.0000 C   0  0  0  0  0  0  0  0  0  0  0  0
   -9.7500   -5.7990    0.0000 C   0  0  0  0  0  0  0  0  0  0  0  0
   -9.7500   -7.2990    0.0000 O   0  0  0  0  0  0  0  0  0  0  0  0
  -11.0490   -8.0490    0.0000 C   0  0  0  0  0  0  0  0  0  0  0  0
   -8.4510   -5.0490    0.0000 C   0  0  0  0  0  0  0  0  0  0  0  0
   -7.1519   -5.7990    0.0000 O   0  0  0  0  0  0  0  0  0  0  0  0
   -5.8529   -5.0490    0.0000 C   0  0  0  0  0  0  0  0  0  0  0  0
   -8.4510   -3.5490    0.0000 C   0  0  0  0  0  0  0  0  0  0  0  0
  -11.2500   -1.2990    0.0000 C   0  0  0  0  0  0  0  0  0  0  0  0
  -12.0000    0.0000    0.0000 C   0  0  0  0  0  0  0  0  0  0  0  0
  -12.0000   -2.5981    0.0000 C   0  0  0  0  0  0  0  0  0  0  0  0
   -0.7500    1.2990    0.0000 C   0  0  0  0  0  0  0  0  0  0  0  0
    0.7500    1.2990    0.0000 C   0  0  0  0  0  0  0  0  0  0  0  0
    1.5000    2.5981    0.0000 O   0  0  0  0  0  0  0  0  0  0  0  0
    0.7500    3.8971    0.0000 C   0  0  0  0  0  0  0  0  0  0  0  0
  1  2  1  0
  2  3  1  0
  3  4  2  0
  4  5  1  0
  5  6  2  0
  6  7  1  0
  7  8  1  0
  8  9  1  0
  9 10  1  0
  9 11  1  0
 11 12  1  0
 12 13  1  0
 13 14  1  0
 14 15  1  0
 15 16  3  0
 14 17  1  0
 17 18  2  0
 18 19  1  0
 19 20  2  0
 20 21  1  0
 21 22  1  0
 20 23  1  0
 23 24  1  0
 24 25  1  0
 23 26  2  0
 14 27  1  0
 27 28  1  0
 27 29  1  0
  6 30  1  0
 30 31  2  0
 31 32  1  0
 32 33  1  0
 31  3  1  0
 26 17  1  0
M  END
>  <assay_description>  (51) 
Inhibition of OATP1B1 (unknown origin) expressed in HEK293 cells using pitavastatin substrate

>  <molecule_pref_name>  (51) 
VERAPAMIL

>  <canonical_smiles>  (51) 
COc1ccc(CCN(C)CCCC(C#N)(c2ccc(OC)c(OC)c2)C(C)C)cc1OC

>  <pchembl_value>  (51) 
4.19

>  <standard_type>  (51) 
IC50

>  <standard_relation>  (51) 
=

>  <standard_value>  (51) 
64000.0

>  <standard_units>  (51) 
nM

>  <target_pref_name>  (51) 
Solute carrier organic anion transporter family member 1B1

>  <target_organism>  (51) 
Homo sapiens

$$$$
CHEMBL472
     RDKit          2D

 33 35  0  0  0  0  0  0  0  0999 V2000
    3.7500   -1.2990    0.0000 C   0  0  0  0  0  0  0  0  0  0  0  0
    3.0000    0.0000    0.0000 O   0  0  0  0  0  0  0  0  0  0  0  0
    1.5000    0.0000    0.0000 C   0  0  0  0  0  0  0  0  0  0  0  0
    0.7500   -1.2990    0.0000 C   0  0  0  0  0  0  0  0  0  0  0  0
   -0.7500   -1.2990    0.0000 C   0  0  0  0  0  0  0  0  0  0  0  0
   -1.5000    0.0000    0.0000 C   0  0  0  0  0  0  0  0  0  0  0  0
   -3.0000    0.0000    0.0000 Cl  0  0  0  0  0  0  0  0  0  0  0  0
   -0.7500    1.2990    0.0000 C   0  0  0  0  0  0  0  0  0  0  0  0
    0.7500    1.2990    0.0000 C   0  0  0  0  0  0  0  0  0  0  0  0
    1.5000    2.5981    0.0000 C   0  0  0  0  0  0  0  0  0  0  0  0
    0.7500    3.8971    0.0000 O   0  0  0  0  0  0  0  0  0  0  0  0
    3.0000    2.5981    0.0000 N   0  0  0  0  0  0  0  0  0  0  0  0
    3.7500    3.8971    0.0000 C   0  0  0  0  0  0  0  0  0  0  0  0
    5.2500    3.8971    0.0000 C   0  0  0  0  0  0  0  0  0  0  0  0
    6.0000    5.1962    0.0000 C   0  0  0  0  0  0  0  0  0  0  0  0
    7.5000    5.1962    0.0000 C   0  0  0  0  0  0  0  0  0  0  0  0
    8.2500    6.4952    0.0000 C   0  0  0  0  0  0  0  0  0  0  0  0
    7.5000    7.7942    0.0000 C   0  0  0  0  0  0  0  0  0  0  0  0
    8.2500    9.0933    0.0000 S   0  0  0  0  0  0  0  0  0  0  0  0
    9.5490    8.3433    0.0000 O   0  0  0  0  0  0  0  0  0  0  0  0
    6.9510    9.8433    0.0000 O   0  0  0  0  0  0  0  0  0  0  0  0
    9.0000   10.3923    0.0000 N   0  0  0  0  0  0  0  0  0  0  0  0
    8.2500   11.6913    0.0000 C   0  0  0  0  0  0  0  0  0  0  0  0
    6.7500   11.6913    0.0000 O   0  0  0  0  0  0  0  0  0  0  0  0
    9.0000   12.9904    0.0000 N   0  0  0  0  0  0  0  0  0  0  0  0
    8.2500   14.2894    0.0000 C   0  0  0  0  0  0  0  0  0  0  0  0
    9.0000   15.5885    0.0000 C   0  0  0  0  0  0  0  0  0  0  0  0
    8.2500   16.8875    0.0000 C   0  0  0  0  0  0  0  0  0  0  0  0
    6.7500   16.8875    0.0000 C   0  0  0  0  0  0  0  0  0  0  0  0
    6.0000   15.5885    0.0000 C   0  0  0  0  0  0  0  0  0  0  0  0
    6.7500   14.2894    0.0000 C   0  0  0  0  0  0  0  0  0  0  0  0
    6.0000    7.7942    0.0000 C   0  0  0  0  0  0  0  0  0  0  0  0
    5.2500    6.4952    0.0000 C   0  0  0  0  0  0  0  0  0  0  0  0
  1  2  1  0
  2  3  1  0
  3  4  2  0
  4  5  1  0
  5  6  2  0
  6  7  1  0
  6  8  1  0
  8  9  2  0
  9 10  1  0
 10 11  2  0
 10 12  1  0
 12 13  1  0
 13 14  1  0
 14 15  1  0
 15 16  2  0
 16 17  1  0
 17 18  2  0
 18 19  1  0
 19 20  2  0
 19 21  2  0
 19 22  1  0
 22 23  1  0
 23 24  2  0
 23 25  1  0
 25 26  1  0
 26 27  1  0
 27 28  1  0
 28 29  1  0
 29 30  1  0
 30 31  1  0
 18 32  1  0
 32 33  2  0
  9  3  1  0
 33 15  1  0
 31 26  1  0
M  END
>  <assay_description>  (52) 
Inhibition of OATP1B1 (unknown origin) expressed in HEK293 cells using pitavastatin substrate

>  <molecule_pref_name>  (52) 
GLYBURIDE

>  <canonical_smiles>  (52) 
COc1ccc(Cl)cc1C(=O)NCCc1ccc(S(=O)(=O)NC(=O)NC2CCCCC2)cc1

>  <pchembl_value>  (52) 
5.66

>  <standard_type>  (52) 
IC50

>  <standard_relation>  (52) 
=

>  <standard_value>  (52) 
2200.0

>  <standard_units>  (52) 
nM

>  <target_pref_name>  (52) 
Solute carrier organic anion transporter family member 1B1

>  <target_organism>  (52) 
Homo sapiens

$$$$
CHEMBL457
     RDKit          2D

 18 18  0  0  0  0  0  0  0  0999 V2000
    3.0000    0.0000    0.0000 C   0  0  0  0  0  0  0  0  0  0  0  0
    1.5000    0.0000    0.0000 C   0  0  0  0  0  0  0  0  0  0  0  0
    0.7500   -1.2990    0.0000 C   0  0  0  0  0  0  0  0  0  0  0  0
   -0.7500   -1.2990    0.0000 C   0  0  0  0  0  0  0  0  0  0  0  0
   -1.5000    0.0000    0.0000 C   0  0  0  0  0  0  0  0  0  0  0  0
   -3.0000    0.0000    0.0000 C   0  0  0  0  0  0  0  0  0  0  0  0
   -0.7500    1.2990    0.0000 C   0  0  0  0  0  0  0  0  0  0  0  0
   -1.5000    2.5981    0.0000 O   0  0  0  0  0  0  0  0  0  0  0  0
   -0.7500    3.8971    0.0000 C   0  0  0  0  0  0  0  0  0  0  0  0
   -1.5000    5.1962    0.0000 C   0  0  0  0  0  0  0  0  0  0  0  0
   -0.7500    6.4952    0.0000 C   0  0  0  0  0  0  0  0  0  0  0  0
   -1.5000    7.7942    0.0000 C   0  0  0  0  0  0  0  0  0  0  0  0
   -2.7990    7.0442    0.0000 C   0  0  0  0  0  0  0  0  0  0  0  0
   -0.2010    8.5442    0.0000 C   0  0  0  0  0  0  0  0  0  0  0  0
   -2.2500    9.0933    0.0000 C   0  0  0  0  0  0  0  0  0  0  0  0
   -1.5000   10.3923    0.0000 O   0  0  0  0  0  0  0  0  0  0  0  0
   -3.7500    9.0933    0.0000 O   0  0  0  0  0  0  0  0  0  0  0  0
    0.7500    1.2990    0.0000 C   0  0  0  0  0  0  0  0  0  0  0  0
  1  2  1  0
  2  3  2  0
  3  4  1  0
  4  5  2  0
  5  6  1  0
  5  7  1  0
  7  8  1  0
  8  9  1  0
  9 10  1  0
 10 11  1  0
 11 12  1  0
 12 13  1  0
 12 14  1  0
 12 15  1  0
 15 16  2  0
 15 17  1  0
  7 18  2  0
 18  2  1  0
M  END
>  <assay_description>  (53) 
Inhibition of OATP1B1 (unknown origin) expressed in HEK293 cells using pitavastatin substrate

>  <molecule_pref_name>  (53) 
GEMFIBROZIL

>  <canonical_smiles>  (53) 
Cc1ccc(C)c(OCCCC(C)(C)C(=O)O)c1

>  <pchembl_value>  (53) 
4.42

>  <standard_type>  (53) 
IC50

>  <standard_relation>  (53) 
=

>  <standard_value>  (53) 
38000.0

>  <standard_units>  (53) 
nM

>  <target_pref_name>  (53) 
Solute carrier organic anion transporter family member 1B1

>  <target_organism>  (53) 
Homo sapiens

$$$$
CHEMBL1487
     RDKit          2D

 41 44  0  0  0  0  0  0  0  0999 V2000
    5.4627   -4.5501    0.0000 C   0  0  0  0  0  0  0  0  0  0  0  0
    3.9955   -4.2382    0.0000 C   0  0  0  0  0  0  0  0  0  0  0  0
    3.5320   -2.8116    0.0000 C   0  0  0  0  0  0  0  0  0  0  0  0
    2.9918   -5.3529    0.0000 C   0  0  0  0  0  0  0  0  0  0  0  0
    1.5000   -5.1962    0.0000 C   0  0  0  0  0  0  0  0  0  0  0  0
    0.7500   -3.8971    0.0000 C   0  0  0  0  0  0  0  0  0  0  0  0
   -0.7500   -3.8971    0.0000 O   0  0  0  0  0  0  0  0  0  0  0  0
    1.5000   -2.5981    0.0000 N   0  0  0  0  0  0  0  0  0  0  0  0
    0.7500   -1.2990    0.0000 C   0  0  0  0  0  0  0  0  0  0  0  0
    1.5000    0.0000    0.0000 C   0  0  0  0  0  0  0  0  0  0  0  0
    0.7500    1.2990    0.0000 C   0  0  0  0  0  0  0  0  0  0  0  0
   -0.7500    1.2990    0.0000 C   0  0  0  0  0  0  0  0  0  0  0  0
   -1.5000    0.0000    0.0000 C   0  0  0  0  0  0  0  0  0  0  0  0
   -0.7500   -1.2990    0.0000 C   0  0  0  0  0  0  0  0  0  0  0  0
    0.8899   -6.5665    0.0000 C   0  0  0  0  0  0  0  0  0  0  0  0
   -0.5773   -6.8783    0.0000 C   0  0  0  0  0  0  0  0  0  0  0  0
   -1.5810   -5.7636    0.0000 C   0  0  0  0  0  0  0  0  0  0  0  0
   -3.0482   -6.0755    0.0000 C   0  0  0  0  0  0  0  0  0  0  0  0
   -3.5118   -7.5021    0.0000 C   0  0  0  0  0  0  0  0  0  0  0  0
   -2.5081   -8.6168    0.0000 C   0  0  0  0  0  0  0  0  0  0  0  0
   -1.0409   -8.3049    0.0000 C   0  0  0  0  0  0  0  0  0  0  0  0
    2.0046   -7.5702    0.0000 C   0  0  0  0  0  0  0  0  0  0  0  0
    1.8478   -9.0619    0.0000 C   0  0  0  0  0  0  0  0  0  0  0  0
    0.4775   -9.6721    0.0000 C   0  0  0  0  0  0  0  0  0  0  0  0
    0.3207  -11.1638    0.0000 C   0  0  0  0  0  0  0  0  0  0  0  0
    1.5342  -12.0455    0.0000 C   0  0  0  0  0  0  0  0  0  0  0  0
    1.3774  -13.5373    0.0000 F   0  0  0  0  0  0  0  0  0  0  0  0
    2.9046  -11.4354    0.0000 C   0  0  0  0  0  0  0  0  0  0  0  0
    3.0613   -9.9436    0.0000 C   0  0  0  0  0  0  0  0  0  0  0  0
    3.3037   -6.8202    0.0000 N   0  0  0  0  0  0  0  0  0  0  0  0
    4.6740   -7.4303    0.0000 C   0  0  0  0  0  0  0  0  0  0  0  0
    5.8875   -6.5486    0.0000 C   0  0  0  0  0  0  0  0  0  0  0  0
    7.2578   -7.1587    0.0000 C   0  0  0  0  0  0  0  0  0  0  0  0
    7.4146   -8.6505    0.0000 O   0  0  0  0  0  0  0  0  0  0  0  0
    8.4713   -6.2770    0.0000 C   0  0  0  0  0  0  0  0  0  0  0  0
    9.8417   -6.8871    0.0000 C   0  0  0  0  0  0  0  0  0  0  0  0
    9.9984   -8.3789    0.0000 O   0  0  0  0  0  0  0  0  0  0  0  0
   11.0552   -6.0054    0.0000 C   0  0  0  0  0  0  0  0  0  0  0  0
   12.4255   -6.6156    0.0000 C   0  0  0  0  0  0  0  0  0  0  0  0
   12.5823   -8.1073    0.0000 O   0  0  0  0  0  0  0  0  0  0  0  0
   13.6390   -5.7339    0.0000 O   0  0  0  0  0  0  0  0  0  0  0  0
  1  2  1  0
  2  3  1  0
  2  4  1  0
  4  5  2  0
  5  6  1  0
  6  7  2  0
  6  8  1  0
  8  9  1  0
  9 10  2  0
 10 11  1  0
 11 12  2  0
 12 13  1  0
 13 14  2  0
  5 15  1  0
 15 16  1  0
 16 17  2  0
 17 18  1  0
 18 19  2  0
 19 20  1  0
 20 21  2  0
 15 22  2  0
 22 23  1  0
 23 24  2  0
 24 25  1  0
 25 26  2  0
 26 27  1  0
 26 28  1  0
 28 29  2  0
 22 30  1  0
 30 31  1  0
 31 32  1  0
 32 33  1  0
 33 34  1  6
 33 35  1  0
 35 36  1  0
 36 37  1  6
 36 38  1  0
 38 39  1  0
 39 40  2  0
 39 41  1  0
 30  4  1  0
 14  9  1  0
 21 16  1  0
 29 23  1  0
M  END
>  <assay_description>  (54) 
Inhibition of OATP1B1 (unknown origin) expressed in HEK293 cells using pitavastatin substrate

>  <molecule_pref_name>  (54) 
ATORVASTATIN

>  <canonical_smiles>  (54) 
CC(C)c1c(C(=O)Nc2ccccc2)c(-c2ccccc2)c(-c2ccc(F)cc2)n1CC[C@@H](O)C[C@@H](O)CC(=O)O

>  <pchembl_value>  (54) 
6.10

>  <standard_type>  (54) 
IC50

>  <standard_relation>  (54) 
=

>  <standard_value>  (54) 
800.0

>  <standard_units>  (54) 
nM

>  <target_pref_name>  (54) 
Solute carrier organic anion transporter family member 1B1

>  <target_organism>  (54) 
Homo sapiens

$$$$
CHEMBL160
     RDKit          2D

 85 85  0  0  0  0  0  0  0  0999 V2000
   12.3901   -5.1962    0.0000 C   0  0  0  0  0  0  0  0  0  0  0  0
   11.6401   -3.8971    0.0000 C   0  0  0  0  0  0  0  0  0  0  0  0
   10.1401   -3.8971    0.0000 C   0  0  0  0  0  0  0  0  0  0  0  0
    9.3901   -2.5981    0.0000 C   0  0  0  0  0  0  0  0  0  0  0  0
   10.1401   -1.2990    0.0000 C   0  0  0  0  0  0  0  0  0  0  0  0
   11.6401   -1.2990    0.0000 C   0  0  0  0  0  0  0  0  0  0  0  0
    9.3901    0.0000    0.0000 C   0  0  0  0  0  0  0  0  0  0  0  0
   10.1401    1.2990    0.0000 O   0  0  0  0  0  0  0  0  0  0  0  0
    7.8901    0.0000    0.0000 C   0  0  0  0  0  0  0  0  0  0  0  0
    7.7475    1.4932    0.0000 C   0  0  0  0  0  0  0  0  0  0  0  0
    9.2204    1.7771    0.0000 O   0  0  0  0  0  0  0  0  0  0  0  0
    7.3249    2.9324    0.0000 N   0  0  0  0  0  0  0  0  0  0  0  0
    6.6376    4.2657    0.0000 C   0  0  0  0  0  0  0  0  0  0  0  0
    7.8994    5.0767    0.0000 C   0  0  0  0  0  0  0  0  0  0  0  0
    9.2327    4.3893    0.0000 C   0  0  0  0  0  0  0  0  0  0  0  0
    5.7103    5.4448    0.0000 C   0  0  0  0  0  0  0  0  0  0  0  0
    6.7959    6.4799    0.0000 O   0  0  0  0  0  0  0  0  0  0  0  0
    4.5767    6.4271    0.0000 N   0  0  0  0  0  0  0  0  0  0  0  0
    5.4468    7.6489    0.0000 C   0  0  0  0  0  0  0  0  0  0  0  0
    3.2777    7.1771    0.0000 C   0  0  0  0  0  0  0  0  0  0  0  0
    1.8602    7.6677    0.0000 C   0  0  0  0  0  0  0  0  0  0  0  0
    2.2138    9.1254    0.0000 O   0  0  0  0  0  0  0  0  0  0  0  0
    0.3754    7.8811    0.0000 N   0  0  0  0  0  0  0  0  0  0  0  0
    0.4468    9.3794    0.0000 C   0  0  0  0  0  0  0  0  0  0  0  0
   -1.1229    7.8098    0.0000 C   0  0  0  0  0  0  0  0  0  0  0  0
   -1.3363    9.2945    0.0000 C   0  0  0  0  0  0  0  0  0  0  0  0
   -0.1573   10.2217    0.0000 C   0  0  0  0  0  0  0  0  0  0  0  0
   -0.3707   11.7065    0.0000 C   0  0  0  0  0  0  0  0  0  0  0  0
    1.2353    9.6642    0.0000 C   0  0  0  0  0  0  0  0  0  0  0  0
   -2.5806    7.4561    0.0000 C   0  0  0  0  0  0  0  0  0  0  0  0
   -3.0712    8.8736    0.0000 O   0  0  0  0  0  0  0  0  0  0  0  0
   -3.9450    6.8330    0.0000 N   0  0  0  0  0  0  0  0  0  0  0  0
   -5.1669    5.9629    0.0000 C   0  0  0  0  0  0  0  0  0  0  0  0
   -6.1492    7.0966    0.0000 C   0  0  0  0  0  0  0  0  0  0  0  0
   -5.6586    8.5141    0.0000 C   0  0  0  0  0  0  0  0  0  0  0  0
   -7.6221    6.8127    0.0000 C   0  0  0  0  0  0  0  0  0  0  0  0
   -6.2020    4.8773    0.0000 C   0  0  0  0  0  0  0  0  0  0  0  0
   -7.3811    5.8046    0.0000 O   0  0  0  0  0  0  0  0  0  0  0  0
   -7.0130    3.6154    0.0000 N   0  0  0  0  0  0  0  0  0  0  0  0
   -8.3462    4.3028    0.0000 C   0  0  0  0  0  0  0  0  0  0  0  0
   -7.5705    2.2229    0.0000 C   0  0  0  0  0  0  0  0  0  0  0  0
   -9.0097    2.6455    0.0000 C   0  0  0  0  0  0  0  0  0  0  0  0
   -9.3634    4.1032    0.0000 C   0  0  0  0  0  0  0  0  0  0  0  0
  -10.8026    4.5258    0.0000 C   0  0  0  0  0  0  0  0  0  0  0  0
   -8.2778    5.1383    0.0000 C   0  0  0  0  0  0  0  0  0  0  0  0
   -7.8544    0.7500    0.0000 C   0  0  0  0  0  0  0  0  0  0  0  0
   -9.3476    0.8926    0.0000 O   0  0  0  0  0  0  0  0  0  0  0  0
   -7.8544   -0.7500    0.0000 N   0  0  0  0  0  0  0  0  0  0  0  0
   -7.5705   -2.2229    0.0000 C   0  0  0  0  0  0  0  0  0  0  0  0
   -9.0097   -2.6455    0.0000 C   0  0  0  0  0  0  0  0  0  0  0  0
   -7.0130   -3.6154    0.0000 C   0  0  0  0  0  0  0  0  0  0  0  0
   -8.3462   -4.3028    0.0000 O   0  0  0  0  0  0  0  0  0  0  0  0
   -6.2020   -4.8773    0.0000 N   0  0  0  0  0  0  0  0  0  0  0  0
   -5.1669   -5.9629    0.0000 C   0  0  0  0  0  0  0  0  0  0  0  0
   -6.1492   -7.0966    0.0000 C   0  0  0  0  0  0  0  0  0  0  0  0
   -3.9450   -6.8330    0.0000 C   0  0  0  0  0  0  0  0  0  0  0  0
   -4.6950   -8.1320    0.0000 O   0  0  0  0  0  0  0  0  0  0  0  0
   -2.5806   -7.4561    0.0000 N   0  0  0  0  0  0  0  0  0  0  0  0
   -3.0712   -8.8736    0.0000 C   0  0  0  0  0  0  0  0  0  0  0  0
   -1.1229   -7.8098    0.0000 C   0  0  0  0  0  0  0  0  0  0  0  0
   -1.3363   -9.2945    0.0000 C   0  0  0  0  0  0  0  0  0  0  0  0
   -2.7289   -9.8520    0.0000 C   0  0  0  0  0  0  0  0  0  0  0  0
   -2.9424  -11.3367    0.0000 C   0  0  0  0  0  0  0  0  0  0  0  0
   -3.9080   -8.9248    0.0000 C   0  0  0  0  0  0  0  0  0  0  0  0
    0.3754   -7.8811    0.0000 C   0  0  0  0  0  0  0  0  0  0  0  0
    0.4468   -9.3794    0.0000 O   0  0  0  0  0  0  0  0  0  0  0  0
    1.8602   -7.6677    0.0000 N   0  0  0  0  0  0  0  0  0  0  0  0
    2.2138   -9.1254    0.0000 C   0  0  0  0  0  0  0  0  0  0  0  0
    3.2777   -7.1771    0.0000 C   0  0  0  0  0  0  0  0  0  0  0  0
    3.9008   -8.5415    0.0000 C   0  0  0  0  0  0  0  0  0  0  0  0
    3.0307   -9.7634    0.0000 C   0  0  0  0  0  0  0  0  0  0  0  0
    3.6538  -11.1278    0.0000 C   0  0  0  0  0  0  0  0  0  0  0  0
    1.5375   -9.6208    0.0000 C   0  0  0  0  0  0  0  0  0  0  0  0
    4.5767   -6.4271    0.0000 C   0  0  0  0  0  0  0  0  0  0  0  0
    5.4468   -7.6489    0.0000 O   0  0  0  0  0  0  0  0  0  0  0  0
    5.7103   -5.4448    0.0000 N   0  0  0  0  0  0  0  0  0  0  0  0
    6.7959   -6.4799    0.0000 C   0  0  0  0  0  0  0  0  0  0  0  0
    6.6376   -4.2657    0.0000 C   0  0  0  0  0  0  0  0  0  0  0  0
    7.8994   -5.0767    0.0000 C   0  0  0  0  0  0  0  0  0  0  0  0
    7.8281   -6.5750    0.0000 C   0  0  0  0  0  0  0  0  0  0  0  0
    9.2327   -4.3893    0.0000 C   0  0  0  0  0  0  0  0  0  0  0  0
    7.3249   -2.9324    0.0000 C   0  0  0  0  0  0  0  0  0  0  0  0
    8.7175   -3.4899    0.0000 O   0  0  0  0  0  0  0  0  0  0  0  0
    7.7475   -1.4932    0.0000 N   0  0  0  0  0  0  0  0  0  0  0  0
    9.2204   -1.7771    0.0000 C   0  0  0  0  0  0  0  0  0  0  0  0
  1  2  1  0
  2  3  2  0
  3  4  1  0
  4  5  1  0
  5  6  1  6
  5  7  1  0
  7  8  1  6
  7  9  1  0
  9 10  1  6
 10 11  2  0
 10 12  1  0
 12 13  1  0
 13 14  1  6
 14 15  1  0
 13 16  1  0
 16 17  2  0
 16 18  1  0
 18 19  1  0
 18 20  1  0
 20 21  1  0
 21 22  2  0
 21 23  1  0
 23 24  1  0
 23 25  1  0
 25 26  1  6
 26 27  1  0
 27 28  1  0
 27 29  1  0
 25 30  1  0
 30 31  2  0
 30 32  1  0
 32 33  1  0
 33 34  1  6
 34 35  1  0
 34 36  1  0
 33 37  1  0
 37 38  2  0
 37 39  1  0
 39 40  1  0
 39 41  1  0
 41 42  1  6
 42 43  1  0
 43 44  1  0
 43 45  1  0
 41 46  1  0
 46 47  2  0
 46 48  1  0
 48 49  1  0
 49 50  1  6
 49 51  1  0
 51 52  2  0
 51 53  1  0
 53 54  1  0
 54 55  1  1
 54 56  1  0
 56 57  2  0
 56 58  1  0
 58 59  1  0
 58 60  1  0
 60 61  1  6
 61 62  1  0
 62 63  1  0
 62 64  1  0
 60 65  1  0
 65 66  2  0
 65 67  1  0
 67 68  1  0
 67 69  1  0
 69 70  1  6
 70 71  1  0
 71 72  1  0
 71 73  1  0
 69 74  1  0
 74 75  2  0
 74 76  1  0
 76 77  1  0
 76 78  1  0
 78 79  1  6
 79 80  1  0
 79 81  1  0
 78 82  1  0
 82 83  2  0
 82 84  1  0
 84 85  1  0
 84  9  1  0
M  END
>  <assay_description>  (55) 
Inhibition of OATP1B1 (unknown origin) expressed in HEK293 cells using estradiol-17beta-glucuronide substrate

>  <molecule_pref_name>  (55) 
CYCLOSPORINE

>  <canonical_smiles>  (55) 
C/C=C/C[C@@H](C)[C@@H](O)[C@H]1C(=O)N[C@@H](CC)C(=O)N(C)CC(=O)N(C)[C@@H](CC(C)C)C(=O)N[C@@H](C(C)C)C(=O)N(C)[C@@H](CC(C)C)C(=O)N[C@@H](C)C(=O)N[C@H](C)C(=O)N(C)[C@@H](CC(C)C)C(=O)N(C)[C@@H](CC(C)C)C(=O)N(C)[C@@H](C(C)C)C(=O)N1C

>  <pchembl_value>  (55) 
6.16

>  <standard_type>  (55) 
IC50

>  <standard_relation>  (55) 
=

>  <standard_value>  (55) 
700.0

>  <standard_units>  (55) 
nM

>  <target_pref_name>  (55) 
Solute carrier organic anion transporter family member 1B1

>  <target_organism>  (55) 
Homo sapiens

$$$$
CHEMBL163
     RDKit          2D

 50 53  0  0  0  0  0  0  0  0999 V2000
   -9.3308    3.7259    0.0000 C   0  0  0  0  0  0  0  0  0  0  0  0
   -9.1740    2.2341    0.0000 C   0  0  0  0  0  0  0  0  0  0  0  0
  -10.3875    1.3524    0.0000 C   0  0  0  0  0  0  0  0  0  0  0  0
   -7.8037    1.6240    0.0000 C   0  0  0  0  0  0  0  0  0  0  0  0
   -7.4918    0.1568    0.0000 N   0  0  0  0  0  0  0  0  0  0  0  0
   -6.0000    0.0000    0.0000 C   0  0  0  0  0  0  0  0  0  0  0  0
   -5.2500   -1.2990    0.0000 C   0  0  0  0  0  0  0  0  0  0  0  0
   -6.0000   -2.5981    0.0000 N   0  0  0  0  0  0  0  0  0  0  0  0
   -7.5000   -2.5981    0.0000 C   0  0  0  0  0  0  0  0  0  0  0  0
   -5.2500   -3.8971    0.0000 C   0  0  0  0  0  0  0  0  0  0  0  0
   -6.0000   -5.1962    0.0000 O   0  0  0  0  0  0  0  0  0  0  0  0
   -3.7500   -3.8971    0.0000 N   0  0  0  0  0  0  0  0  0  0  0  0
   -3.0000   -5.1962    0.0000 C   0  0  0  0  0  0  0  0  0  0  0  0
   -1.5000   -5.1962    0.0000 C   0  0  0  0  0  0  0  0  0  0  0  0
   -0.7500   -6.4952    0.0000 O   0  0  0  0  0  0  0  0  0  0  0  0
   -0.7500   -3.8971    0.0000 N   0  0  0  0  0  0  0  0  0  0  0  0
    0.7500   -3.8971    0.0000 C   0  0  0  0  0  0  0  0  0  0  0  0
    1.5000   -2.5981    0.0000 C   0  0  0  0  0  0  0  0  0  0  0  0
    0.7500   -1.2990    0.0000 C   0  0  0  0  0  0  0  0  0  0  0  0
    1.5000    0.0000    0.0000 C   0  0  0  0  0  0  0  0  0  0  0  0
    0.7500    1.2990    0.0000 C   0  0  0  0  0  0  0  0  0  0  0  0
   -0.7500    1.2990    0.0000 C   0  0  0  0  0  0  0  0  0  0  0  0
   -1.5000    0.0000    0.0000 C   0  0  0  0  0  0  0  0  0  0  0  0
   -0.7500   -1.2990    0.0000 C   0  0  0  0  0  0  0  0  0  0  0  0
    1.5000   -5.1962    0.0000 C   0  0  0  0  0  0  0  0  0  0  0  0
    3.0000   -5.1962    0.0000 C   0  0  0  0  0  0  0  0  0  0  0  0
    3.7500   -3.8971    0.0000 O   0  0  0  0  0  0  0  0  0  0  0  0
    3.7500   -6.4952    0.0000 C   0  0  0  0  0  0  0  0  0  0  0  0
    5.2500   -6.4952    0.0000 C   0  0  0  0  0  0  0  0  0  0  0  0
    6.0000   -7.7942    0.0000 C   0  0  0  0  0  0  0  0  0  0  0  0
    7.5000   -7.7942    0.0000 C   0  0  0  0  0  0  0  0  0  0  0  0
    8.2500   -9.0933    0.0000 C   0  0  0  0  0  0  0  0  0  0  0  0
    7.5000  -10.3923    0.0000 C   0  0  0  0  0  0  0  0  0  0  0  0
    6.0000  -10.3923    0.0000 C   0  0  0  0  0  0  0  0  0  0  0  0
    5.2500   -9.0933    0.0000 C   0  0  0  0  0  0  0  0  0  0  0  0
    3.0000   -7.7942    0.0000 N   0  0  0  0  0  0  0  0  0  0  0  0
    1.5000   -7.7942    0.0000 C   0  0  0  0  0  0  0  0  0  0  0  0
    0.7500   -6.4952    0.0000 O   0  0  0  0  0  0  0  0  0  0  0  0
    0.7500   -9.0933    0.0000 O   0  0  0  0  0  0  0  0  0  0  0  0
   -0.7500   -9.0933    0.0000 C   0  0  0  0  0  0  0  0  0  0  0  0
   -1.5000  -10.3923    0.0000 C   0  0  0  0  0  0  0  0  0  0  0  0
   -0.8899  -11.7626    0.0000 C   0  0  0  0  0  0  0  0  0  0  0  0
   -2.0046  -12.7663    0.0000 N   0  0  0  0  0  0  0  0  0  0  0  0
   -3.3037  -12.0163    0.0000 C   0  0  0  0  0  0  0  0  0  0  0  0
   -2.9918  -10.5491    0.0000 S   0  0  0  0  0  0  0  0  0  0  0  0
   -3.7500   -6.4952    0.0000 C   0  0  0  0  0  0  0  0  0  0  0  0
   -5.2500   -6.4952    0.0000 C   0  0  0  0  0  0  0  0  0  0  0  0
   -3.0000   -7.7942    0.0000 C   0  0  0  0  0  0  0  0  0  0  0  0
   -5.3899    1.3703    0.0000 C   0  0  0  0  0  0  0  0  0  0  0  0
   -6.5046    2.3740    0.0000 S   0  0  0  0  0  0  0  0  0  0  0  0
  1  2  1  0
  2  3  1  0
  2  4  1  0
  4  5  2  0
  5  6  1  0
  6  7  1  0
  7  8  1  0
  8  9  1  0
  8 10  1  0
 10 11  2  0
 10 12  1  0
 13 12  1  6
 13 14  1  0
 14 15  2  0
 14 16  1  0
 16 17  1  0
 17 18  1  1
 18 19  1  0
 19 20  2  0
 20 21  1  0
 21 22  2  0
 22 23  1  0
 23 24  2  0
 17 25  1  0
 25 26  1  0
 26 27  1  6
 26 28  1  0
 28 29  1  6
 29 30  1  0
 30 31  2  0
 31 32  1  0
 32 33  2  0
 33 34  1  0
 34 35  2  0
 28 36  1  0
 36 37  1  0
 37 38  2  0
 37 39  1  0
 39 40  1  0
 40 41  1  0
 41 42  2  0
 42 43  1  0
 43 44  2  0
 44 45  1  0
 13 46  1  0
 46 47  1  0
 46 48  1  0
  6 49  2  0
 49 50  1  0
 50  4  1  0
 24 19  1  0
 35 30  1  0
 45 41  1  0
M  END
>  <assay_description>  (56) 
Inhibition of OATP1B1 (unknown origin) expressed in HEK293 cells using estradiol-17beta-glucuronide substrate

>  <molecule_pref_name>  (56) 
RITONAVIR

>  <canonical_smiles>  (56) 
CC(C)c1nc(CN(C)C(=O)N[C@H](C(=O)N[C@@H](Cc2ccccc2)C[C@H](O)[C@H](Cc2ccccc2)NC(=O)OCc2cncs2)C(C)C)cs1

>  <pchembl_value>  (56) 
6.16

>  <standard_type>  (56) 
IC50

>  <standard_relation>  (56) 
=

>  <standard_value>  (56) 
700.0

>  <standard_units>  (56) 
nM

>  <target_pref_name>  (56) 
Solute carrier organic anion transporter family member 1B1

>  <target_organism>  (56) 
Homo sapiens

$$$$
CHEMBL374478
     RDKit          2D

 59 63  0  0  0  0  0  0  0  0999 V2000
    0.4940    8.3646    0.0000 C   0  0  0  0  0  0  0  0  0  0  0  0
   -1.0057    8.3332    0.0000 O   0  0  0  0  0  0  0  0  0  0  0  0
   -1.7283    7.0188    0.0000 C   0  0  0  0  0  0  0  0  0  0  0  0
   -0.5195    6.1307    0.0000 C   0  0  0  0  0  0  0  0  0  0  0  0
    0.4184    4.9601    0.0000 C   0  0  0  0  0  0  0  0  0  0  0  0
    1.0212    3.5866    0.0000 O   0  0  0  0  0  0  0  0  0  0  0  0
    0.3943    1.2135    0.0000 C   0  0  0  0  0  0  0  0  0  0  0  0
    0.8578    2.6401    0.0000 C   0  0  0  0  0  0  0  0  0  0  0  0
    1.2760    0.0000    0.0000 O   0  0  0  0  0  0  0  0  0  0  0  0
    0.3943   -1.2135    0.0000 C   0  0  0  0  0  0  0  0  0  0  0  0
    0.7062   -2.6807    0.0000 C   0  0  0  0  0  0  0  0  0  0  0  0
    2.1328   -3.1443    0.0000 C   0  0  0  0  0  0  0  0  0  0  0  0
   -0.4086   -3.6844    0.0000 C   0  0  0  0  0  0  0  0  0  0  0  0
   -0.0967   -5.1517    0.0000 O   0  0  0  0  0  0  0  0  0  0  0  0
   -1.8351   -3.2209    0.0000 C   0  0  0  0  0  0  0  0  0  0  0  0
   -2.9499   -4.2246    0.0000 C   0  0  0  0  0  0  0  0  0  0  0  0
   -2.6380   -5.6918    0.0000 O   0  0  0  0  0  0  0  0  0  0  0  0
   -4.3764   -3.7611    0.0000 C   0  0  0  0  0  0  0  0  0  0  0  0
   -4.6883   -2.2939    0.0000 C   0  0  0  0  0  0  0  0  0  0  0  0
   -6.1149   -1.8303    0.0000 C   0  0  0  0  0  0  0  0  0  0  0  0
   -6.4268   -0.3631    0.0000 N   0  0  0  0  0  0  0  0  0  0  0  0
   -7.8533    0.1004    0.0000 N   0  0  0  0  0  0  0  0  0  0  0  0
   -8.1652    1.5676    0.0000 C   0  0  0  0  0  0  0  0  0  0  0  0
   -9.5918    2.0312    0.0000 C   0  0  0  0  0  0  0  0  0  0  0  0
  -10.7065    1.0275    0.0000 N   0  0  0  0  0  0  0  0  0  0  0  0
  -12.1331    1.4910    0.0000 C   0  0  0  0  0  0  0  0  0  0  0  0
  -10.3946   -0.4398    0.0000 C   0  0  0  0  0  0  0  0  0  0  0  0
   -8.9681   -0.9033    0.0000 C   0  0  0  0  0  0  0  0  0  0  0  0
   -3.5736   -1.2902    0.0000 C   0  0  0  0  0  0  0  0  0  0  0  0
   -3.8855    0.1771    0.0000 O   0  0  0  0  0  0  0  0  0  0  0  0
   -2.1470   -1.7537    0.0000 C   0  0  0  0  0  0  0  0  0  0  0  0
   -1.0323   -0.7500    0.0000 C   0  0  0  0  0  0  0  0  0  0  0  0
   -1.0323    0.7500    0.0000 C   0  0  0  0  0  0  0  0  0  0  0  0
   -2.2458    1.6317    0.0000 O   0  0  0  0  0  0  0  0  0  0  0  0
   -5.8674   -3.5964    0.0000 N   0  0  0  0  0  0  0  0  0  0  0  0
   -7.2649   -3.0515    0.0000 C   0  0  0  0  0  0  0  0  0  0  0  0
   -7.9876   -4.3660    0.0000 O   0  0  0  0  0  0  0  0  0  0  0  0
   -8.4738   -2.1635    0.0000 C   0  0  0  0  0  0  0  0  0  0  0  0
   -9.5120   -3.2461    0.0000 C   0  0  0  0  0  0  0  0  0  0  0  0
   -9.4116   -0.9928    0.0000 C   0  0  0  0  0  0  0  0  0  0  0  0
  -10.0145    0.3807    0.0000 C   0  0  0  0  0  0  0  0  0  0  0  0
  -10.2413    1.8634    0.0000 C   0  0  0  0  0  0  0  0  0  0  0  0
  -10.0767    3.3544    0.0000 C   0  0  0  0  0  0  0  0  0  0  0  0
  -11.5334    3.7122    0.0000 C   0  0  0  0  0  0  0  0  0  0  0  0
   -9.5318    4.7519    0.0000 C   0  0  0  0  0  0  0  0  0  0  0  0
  -10.8462    5.4746    0.0000 O   0  0  0  0  0  0  0  0  0  0  0  0
   -8.6437    5.9608    0.0000 C   0  0  0  0  0  0  0  0  0  0  0  0
   -9.7263    6.9990    0.0000 C   0  0  0  0  0  0  0  0  0  0  0  0
   -7.4731    6.8986    0.0000 C   0  0  0  0  0  0  0  0  0  0  0  0
   -8.2501    8.1817    0.0000 O   0  0  0  0  0  0  0  0  0  0  0  0
   -6.0995    7.5015    0.0000 C   0  0  0  0  0  0  0  0  0  0  0  0
   -6.5180    8.9419    0.0000 C   0  0  0  0  0  0  0  0  0  0  0  0
   -4.6168    7.7283    0.0000 C   0  0  0  0  0  0  0  0  0  0  0  0
   -4.6482    9.2280    0.0000 O   0  0  0  0  0  0  0  0  0  0  0  0
   -3.3651   10.0050    0.0000 C   0  0  0  0  0  0  0  0  0  0  0  0
   -3.3965   11.5047    0.0000 C   0  0  0  0  0  0  0  0  0  0  0  0
   -1.9724    9.4480    0.0000 O   0  0  0  0  0  0  0  0  0  0  0  0
   -3.1259    7.5637    0.0000 C   0  0  0  0  0  0  0  0  0  0  0  0
   -2.5931    8.9659    0.0000 C   0  0  0  0  0  0  0  0  0  0  0  0
  1  2  1  0
  3  2  1  1
  3  4  1  0
  4  5  2  0
  5  6  1  0
  6  7  1  0
  7  8  1  6
  7  9  1  0
  9 10  1  0
 10 11  2  0
 11 12  1  0
 11 13  1  0
 13 14  1  0
 13 15  2  0
 15 16  1  0
 16 17  1  0
 16 18  2  0
 18 19  1  0
 19 20  1  0
 20 21  2  0
 21 22  1  0
 22 23  1  0
 23 24  1  0
 24 25  1  0
 25 26  1  0
 25 27  1  0
 27 28  1  0
 19 29  2  0
 29 30  1  0
 29 31  1  0
 31 32  2  0
 32 33  1  0
 33 34  2  0
 18 35  1  0
 35 36  1  0
 36 37  2  0
 36 38  1  0
 38 39  1  0
 38 40  2  0
 40 41  1  0
 41 42  2  0
 42 43  1  0
 43 44  1  6
 43 45  1  0
 45 46  1  6
 45 47  1  0
 47 48  1  1
 47 49  1  0
 49 50  1  1
 49 51  1  0
 51 52  1  1
 51 53  1  0
 53 54  1  6
 54 55  1  0
 55 56  1  0
 55 57  2  0
 53 58  1  0
 58 59  1  6
 58  3  1  0
 33  7  1  0
 32 10  1  0
 31 15  1  0
 28 22  1  0
M  END
>  <assay_description>  (57) 
Inhibition of OATP1B1 (unknown origin) expressed in HEK293 cells using estradiol-17beta-glucuronide substrate

>  <molecule_pref_name>  (57) 
RIFAMPIN

>  <canonical_smiles>  (57) 
CO[C@H]1/C=C/O[C@@]2(C)Oc3c(C)c(O)c4c(O)c(c(/C=N/N5CCN(C)CC5)c(O)c4c3C2=O)NC(=O)/C(C)=C\C=C\[C@H](C)[C@H](O)[C@@H](C)[C@@H](O)[C@@H](C)[C@H](OC(C)=O)[C@@H]1C

>  <pchembl_value>  (57) 
6.52

>  <standard_type>  (57) 
IC50

>  <standard_relation>  (57) 
=

>  <standard_value>  (57) 
300.0

>  <standard_units>  (57) 
nM

>  <target_pref_name>  (57) 
Solute carrier organic anion transporter family member 1B1

>  <target_organism>  (57) 
Homo sapiens

$$$$
CHEMBL1487
     RDKit          2D

 41 44  0  0  0  0  0  0  0  0999 V2000
    5.4627   -4.5501    0.0000 C   0  0  0  0  0  0  0  0  0  0  0  0
    3.9955   -4.2382    0.0000 C   0  0  0  0  0  0  0  0  0  0  0  0
    3.5320   -2.8116    0.0000 C   0  0  0  0  0  0  0  0  0  0  0  0
    2.9918   -5.3529    0.0000 C   0  0  0  0  0  0  0  0  0  0  0  0
    1.5000   -5.1962    0.0000 C   0  0  0  0  0  0  0  0  0  0  0  0
    0.7500   -3.8971    0.0000 C   0  0  0  0  0  0  0  0  0  0  0  0
   -0.7500   -3.8971    0.0000 O   0  0  0  0  0  0  0  0  0  0  0  0
    1.5000   -2.5981    0.0000 N   0  0  0  0  0  0  0  0  0  0  0  0
    0.7500   -1.2990    0.0000 C   0  0  0  0  0  0  0  0  0  0  0  0
    1.5000    0.0000    0.0000 C   0  0  0  0  0  0  0  0  0  0  0  0
    0.7500    1.2990    0.0000 C   0  0  0  0  0  0  0  0  0  0  0  0
   -0.7500    1.2990    0.0000 C   0  0  0  0  0  0  0  0  0  0  0  0
   -1.5000    0.0000    0.0000 C   0  0  0  0  0  0  0  0  0  0  0  0
   -0.7500   -1.2990    0.0000 C   0  0  0  0  0  0  0  0  0  0  0  0
    0.8899   -6.5665    0.0000 C   0  0  0  0  0  0  0  0  0  0  0  0
   -0.5773   -6.8783    0.0000 C   0  0  0  0  0  0  0  0  0  0  0  0
   -1.5810   -5.7636    0.0000 C   0  0  0  0  0  0  0  0  0  0  0  0
   -3.0482   -6.0755    0.0000 C   0  0  0  0  0  0  0  0  0  0  0  0
   -3.5118   -7.5021    0.0000 C   0  0  0  0  0  0  0  0  0  0  0  0
   -2.5081   -8.6168    0.0000 C   0  0  0  0  0  0  0  0  0  0  0  0
   -1.0409   -8.3049    0.0000 C   0  0  0  0  0  0  0  0  0  0  0  0
    2.0046   -7.5702    0.0000 C   0  0  0  0  0  0  0  0  0  0  0  0
    1.8478   -9.0619    0.0000 C   0  0  0  0  0  0  0  0  0  0  0  0
    0.4775   -9.6721    0.0000 C   0  0  0  0  0  0  0  0  0  0  0  0
    0.3207  -11.1638    0.0000 C   0  0  0  0  0  0  0  0  0  0  0  0
    1.5342  -12.0455    0.0000 C   0  0  0  0  0  0  0  0  0  0  0  0
    1.3774  -13.5373    0.0000 F   0  0  0  0  0  0  0  0  0  0  0  0
    2.9046  -11.4354    0.0000 C   0  0  0  0  0  0  0  0  0  0  0  0
    3.0613   -9.9436    0.0000 C   0  0  0  0  0  0  0  0  0  0  0  0
    3.3037   -6.8202    0.0000 N   0  0  0  0  0  0  0  0  0  0  0  0
    4.6740   -7.4303    0.0000 C   0  0  0  0  0  0  0  0  0  0  0  0
    5.8875   -6.5486    0.0000 C   0  0  0  0  0  0  0  0  0  0  0  0
    7.2578   -7.1587    0.0000 C   0  0  0  0  0  0  0  0  0  0  0  0
    7.4146   -8.6505    0.0000 O   0  0  0  0  0  0  0  0  0  0  0  0
    8.4713   -6.2770    0.0000 C   0  0  0  0  0  0  0  0  0  0  0  0
    9.8417   -6.8871    0.0000 C   0  0  0  0  0  0  0  0  0  0  0  0
    9.9984   -8.3789    0.0000 O   0  0  0  0  0  0  0  0  0  0  0  0
   11.0552   -6.0054    0.0000 C   0  0  0  0  0  0  0  0  0  0  0  0
   12.4255   -6.6156    0.0000 C   0  0  0  0  0  0  0  0  0  0  0  0
   12.5823   -8.1073    0.0000 O   0  0  0  0  0  0  0  0  0  0  0  0
   13.6390   -5.7339    0.0000 O   0  0  0  0  0  0  0  0  0  0  0  0
  1  2  1  0
  2  3  1  0
  2  4  1  0
  4  5  2  0
  5  6  1  0
  6  7  2  0
  6  8  1  0
  8  9  1  0
  9 10  2  0
 10 11  1  0
 11 12  2  0
 12 13  1  0
 13 14  2  0
  5 15  1  0
 15 16  1  0
 16 17  2  0
 17 18  1  0
 18 19  2  0
 19 20  1  0
 20 21  2  0
 15 22  2  0
 22 23  1  0
 23 24  2  0
 24 25  1  0
 25 26  2  0
 26 27  1  0
 26 28  1  0
 28 29  2  0
 22 30  1  0
 30 31  1  0
 31 32  1  0
 32 33  1  0
 33 34  1  6
 33 35  1  0
 35 36  1  0
 36 37  1  6
 36 38  1  0
 38 39  1  0
 39 40  2  0
 39 41  1  0
 30  4  1  0
 14  9  1  0
 21 16  1  0
 29 23  1  0
M  END
>  <assay_description>  (58) 
Inhibition of OATP1B1 (unknown origin) expressed in HEK293 cells using estrone-3-sulfate substrate

>  <molecule_pref_name>  (58) 
ATORVASTATIN

>  <canonical_smiles>  (58) 
CC(C)c1c(C(=O)Nc2ccccc2)c(-c2ccccc2)c(-c2ccc(F)cc2)n1CC[C@@H](O)C[C@@H](O)CC(=O)O

>  <pchembl_value>  (58) 
5.80

>  <standard_type>  (58) 
IC50

>  <standard_relation>  (58) 
=

>  <standard_value>  (58) 
1600.0

>  <standard_units>  (58) 
nM

>  <target_pref_name>  (58) 
Solute carrier organic anion transporter family member 1B1

>  <target_organism>  (58) 
Homo sapiens

$$$$
CHEMBL472
     RDKit          2D

 33 35  0  0  0  0  0  0  0  0999 V2000
    3.7500   -1.2990    0.0000 C   0  0  0  0  0  0  0  0  0  0  0  0
    3.0000    0.0000    0.0000 O   0  0  0  0  0  0  0  0  0  0  0  0
    1.5000    0.0000    0.0000 C   0  0  0  0  0  0  0  0  0  0  0  0
    0.7500   -1.2990    0.0000 C   0  0  0  0  0  0  0  0  0  0  0  0
   -0.7500   -1.2990    0.0000 C   0  0  0  0  0  0  0  0  0  0  0  0
   -1.5000    0.0000    0.0000 C   0  0  0  0  0  0  0  0  0  0  0  0
   -3.0000    0.0000    0.0000 Cl  0  0  0  0  0  0  0  0  0  0  0  0
   -0.7500    1.2990    0.0000 C   0  0  0  0  0  0  0  0  0  0  0  0
    0.7500    1.2990    0.0000 C   0  0  0  0  0  0  0  0  0  0  0  0
    1.5000    2.5981    0.0000 C   0  0  0  0  0  0  0  0  0  0  0  0
    0.7500    3.8971    0.0000 O   0  0  0  0  0  0  0  0  0  0  0  0
    3.0000    2.5981    0.0000 N   0  0  0  0  0  0  0  0  0  0  0  0
    3.7500    3.8971    0.0000 C   0  0  0  0  0  0  0  0  0  0  0  0
    5.2500    3.8971    0.0000 C   0  0  0  0  0  0  0  0  0  0  0  0
    6.0000    5.1962    0.0000 C   0  0  0  0  0  0  0  0  0  0  0  0
    7.5000    5.1962    0.0000 C   0  0  0  0  0  0  0  0  0  0  0  0
    8.2500    6.4952    0.0000 C   0  0  0  0  0  0  0  0  0  0  0  0
    7.5000    7.7942    0.0000 C   0  0  0  0  0  0  0  0  0  0  0  0
    8.2500    9.0933    0.0000 S   0  0  0  0  0  0  0  0  0  0  0  0
    9.5490    8.3433    0.0000 O   0  0  0  0  0  0  0  0  0  0  0  0
    6.9510    9.8433    0.0000 O   0  0  0  0  0  0  0  0  0  0  0  0
    9.0000   10.3923    0.0000 N   0  0  0  0  0  0  0  0  0  0  0  0
    8.2500   11.6913    0.0000 C   0  0  0  0  0  0  0  0  0  0  0  0
    6.7500   11.6913    0.0000 O   0  0  0  0  0  0  0  0  0  0  0  0
    9.0000   12.9904    0.0000 N   0  0  0  0  0  0  0  0  0  0  0  0
    8.2500   14.2894    0.0000 C   0  0  0  0  0  0  0  0  0  0  0  0
    9.0000   15.5885    0.0000 C   0  0  0  0  0  0  0  0  0  0  0  0
    8.2500   16.8875    0.0000 C   0  0  0  0  0  0  0  0  0  0  0  0
    6.7500   16.8875    0.0000 C   0  0  0  0  0  0  0  0  0  0  0  0
    6.0000   15.5885    0.0000 C   0  0  0  0  0  0  0  0  0  0  0  0
    6.7500   14.2894    0.0000 C   0  0  0  0  0  0  0  0  0  0  0  0
    6.0000    7.7942    0.0000 C   0  0  0  0  0  0  0  0  0  0  0  0
    5.2500    6.4952    0.0000 C   0  0  0  0  0  0  0  0  0  0  0  0
  1  2  1  0
  2  3  1  0
  3  4  2  0
  4  5  1  0
  5  6  2  0
  6  7  1  0
  6  8  1  0
  8  9  2  0
  9 10  1  0
 10 11  2  0
 10 12  1  0
 12 13  1  0
 13 14  1  0
 14 15  1  0
 15 16  2  0
 16 17  1  0
 17 18  2  0
 18 19  1  0
 19 20  2  0
 19 21  2  0
 19 22  1  0
 22 23  1  0
 23 24  2  0
 23 25  1  0
 25 26  1  0
 26 27  1  0
 27 28  1  0
 28 29  1  0
 29 30  1  0
 30 31  1  0
 18 32  1  0
 32 33  2  0
  9  3  1  0
 33 15  1  0
 31 26  1  0
M  END
>  <assay_description>  (59) 
Inhibition of OATP1B1 (unknown origin) expressed in HEK293 cells using estrone-3-sulfate substrate

>  <molecule_pref_name>  (59) 
GLYBURIDE

>  <canonical_smiles>  (59) 
COc1ccc(Cl)cc1C(=O)NCCc1ccc(S(=O)(=O)NC(=O)NC2CCCCC2)cc1

>  <pchembl_value>  (59) 
4.68

>  <standard_type>  (59) 
IC50

>  <standard_relation>  (59) 
=

>  <standard_value>  (59) 
21000.0

>  <standard_units>  (59) 
nM

>  <target_pref_name>  (59) 
Solute carrier organic anion transporter family member 1B1

>  <target_organism>  (59) 
Homo sapiens

$$$$
CHEMBL1064
     RDKit          2D

 30 32  0  0  0  0  0  0  0  0999 V2000
    7.5000   -2.5981    0.0000 C   0  0  0  0  0  0  0  0  0  0  0  0
    6.7500   -1.2990    0.0000 C   0  0  0  0  0  0  0  0  0  0  0  0
    5.2500   -1.2990    0.0000 C   0  0  0  0  0  0  0  0  0  0  0  0
    5.2500   -2.7990    0.0000 C   0  0  0  0  0  0  0  0  0  0  0  0
    5.2500    0.2010    0.0000 C   0  0  0  0  0  0  0  0  0  0  0  0
    3.7500   -1.2990    0.0000 C   0  0  0  0  0  0  0  0  0  0  0  0
    3.0000   -2.5981    0.0000 O   0  0  0  0  0  0  0  0  0  0  0  0
    3.0000    0.0000    0.0000 O   0  0  0  0  0  0  0  0  0  0  0  0
    1.5000    0.0000    0.0000 C   0  0  0  0  0  0  0  0  0  0  0  0
    0.7500   -1.2990    0.0000 C   0  0  0  0  0  0  0  0  0  0  0  0
   -0.7500   -1.2990    0.0000 C   0  0  0  0  0  0  0  0  0  0  0  0
   -1.5000   -2.5981    0.0000 C   0  0  0  0  0  0  0  0  0  0  0  0
   -1.5000    0.0000    0.0000 C   0  0  0  0  0  0  0  0  0  0  0  0
   -0.7500    1.2990    0.0000 C   0  0  0  0  0  0  0  0  0  0  0  0
   -1.5000    2.5981    0.0000 C   0  0  0  0  0  0  0  0  0  0  0  0
   -0.7500    3.8971    0.0000 C   0  0  0  0  0  0  0  0  0  0  0  0
    0.7500    3.8971    0.0000 C   0  0  0  0  0  0  0  0  0  0  0  0
    1.5000    5.1962    0.0000 C   0  0  0  0  0  0  0  0  0  0  0  0
    1.5000    2.5981    0.0000 C   0  0  0  0  0  0  0  0  0  0  0  0
    3.0000    2.5981    0.0000 C   0  0  0  0  0  0  0  0  0  0  0  0
    3.7500    1.2990    0.0000 C   0  0  0  0  0  0  0  0  0  0  0  0
    5.2500    1.2990    0.0000 C   0  0  0  0  0  0  0  0  0  0  0  0
    6.0000   -0.0000    0.0000 C   0  0  0  0  0  0  0  0  0  0  0  0
    7.5000   -0.0000    0.0000 C   0  0  0  0  0  0  0  0  0  0  0  0
    8.2500   -1.2990    0.0000 O   0  0  0  0  0  0  0  0  0  0  0  0
    8.2500    1.2990    0.0000 C   0  0  0  0  0  0  0  0  0  0  0  0
    7.5000    2.5981    0.0000 C   0  0  0  0  0  0  0  0  0  0  0  0
    8.2500    3.8971    0.0000 O   0  0  0  0  0  0  0  0  0  0  0  0
    6.0000    2.5981    0.0000 O   0  0  0  0  0  0  0  0  0  0  0  0
    0.7500    1.2990    0.0000 C   0  0  0  0  0  0  0  0  0  0  0  0
  1  2  1  0
  2  3  1  0
  3  4  1  0
  3  5  1  0
  3  6  1  0
  6  7  2  0
  6  8  1  0
  9  8  1  1
  9 10  1  0
 10 11  1  0
 11 12  1  1
 11 13  1  0
 13 14  2  0
 14 15  1  0
 15 16  2  0
 16 17  1  0
 17 18  1  6
 17 19  1  0
 19 20  1  6
 20 21  1  0
 22 21  1  1
 22 23  1  0
 23 24  1  0
 24 25  1  6
 24 26  1  0
 26 27  1  0
 27 28  2  0
 27 29  1  0
 19 30  1  0
 30  9  1  0
 30 14  1  1
 29 22  1  0
M  END
>  <assay_description>  (60) 
Inhibition of OATP1B1 (unknown origin) expressed in HEK293 cells using estrone-3-sulfate substrate

>  <molecule_pref_name>  (60) 
SIMVASTATIN

>  <canonical_smiles>  (60) 
CCC(C)(C)C(=O)O[C@H]1C[C@@H](C)C=C2C=C[C@H](C)[C@H](CC[C@@H]3C[C@@H](O)CC(=O)O3)[C@H]21

>  <pchembl_value>  (60) 
4.96

>  <standard_type>  (60) 
IC50

>  <standard_relation>  (60) 
=

>  <standard_value>  (60) 
11000.0

>  <standard_units>  (60) 
nM

>  <target_pref_name>  (60) 
Solute carrier organic anion transporter family member 1B1

>  <target_organism>  (60) 
Homo sapiens

$$$$
CHEMBL374478
     RDKit          2D

 59 63  0  0  0  0  0  0  0  0999 V2000
    0.4940    8.3646    0.0000 C   0  0  0  0  0  0  0  0  0  0  0  0
   -1.0057    8.3332    0.0000 O   0  0  0  0  0  0  0  0  0  0  0  0
   -1.7283    7.0188    0.0000 C   0  0  0  0  0  0  0  0  0  0  0  0
   -0.5195    6.1307    0.0000 C   0  0  0  0  0  0  0  0  0  0  0  0
    0.4184    4.9601    0.0000 C   0  0  0  0  0  0  0  0  0  0  0  0
    1.0212    3.5866    0.0000 O   0  0  0  0  0  0  0  0  0  0  0  0
    0.3943    1.2135    0.0000 C   0  0  0  0  0  0  0  0  0  0  0  0
    0.8578    2.6401    0.0000 C   0  0  0  0  0  0  0  0  0  0  0  0
    1.2760    0.0000    0.0000 O   0  0  0  0  0  0  0  0  0  0  0  0
    0.3943   -1.2135    0.0000 C   0  0  0  0  0  0  0  0  0  0  0  0
    0.7062   -2.6807    0.0000 C   0  0  0  0  0  0  0  0  0  0  0  0
    2.1328   -3.1443    0.0000 C   0  0  0  0  0  0  0  0  0  0  0  0
   -0.4086   -3.6844    0.0000 C   0  0  0  0  0  0  0  0  0  0  0  0
   -0.0967   -5.1517    0.0000 O   0  0  0  0  0  0  0  0  0  0  0  0
   -1.8351   -3.2209    0.0000 C   0  0  0  0  0  0  0  0  0  0  0  0
   -2.9499   -4.2246    0.0000 C   0  0  0  0  0  0  0  0  0  0  0  0
   -2.6380   -5.6918    0.0000 O   0  0  0  0  0  0  0  0  0  0  0  0
   -4.3764   -3.7611    0.0000 C   0  0  0  0  0  0  0  0  0  0  0  0
   -4.6883   -2.2939    0.0000 C   0  0  0  0  0  0  0  0  0  0  0  0
   -6.1149   -1.8303    0.0000 C   0  0  0  0  0  0  0  0  0  0  0  0
   -6.4268   -0.3631    0.0000 N   0  0  0  0  0  0  0  0  0  0  0  0
   -7.8533    0.1004    0.0000 N   0  0  0  0  0  0  0  0  0  0  0  0
   -8.1652    1.5676    0.0000 C   0  0  0  0  0  0  0  0  0  0  0  0
   -9.5918    2.0312    0.0000 C   0  0  0  0  0  0  0  0  0  0  0  0
  -10.7065    1.0275    0.0000 N   0  0  0  0  0  0  0  0  0  0  0  0
  -12.1331    1.4910    0.0000 C   0  0  0  0  0  0  0  0  0  0  0  0
  -10.3946   -0.4398    0.0000 C   0  0  0  0  0  0  0  0  0  0  0  0
   -8.9681   -0.9033    0.0000 C   0  0  0  0  0  0  0  0  0  0  0  0
   -3.5736   -1.2902    0.0000 C   0  0  0  0  0  0  0  0  0  0  0  0
   -3.8855    0.1771    0.0000 O   0  0  0  0  0  0  0  0  0  0  0  0
   -2.1470   -1.7537    0.0000 C   0  0  0  0  0  0  0  0  0  0  0  0
   -1.0323   -0.7500    0.0000 C   0  0  0  0  0  0  0  0  0  0  0  0
   -1.0323    0.7500    0.0000 C   0  0  0  0  0  0  0  0  0  0  0  0
   -2.2458    1.6317    0.0000 O   0  0  0  0  0  0  0  0  0  0  0  0
   -5.8674   -3.5964    0.0000 N   0  0  0  0  0  0  0  0  0  0  0  0
   -7.2649   -3.0515    0.0000 C   0  0  0  0  0  0  0  0  0  0  0  0
   -7.9876   -4.3660    0.0000 O   0  0  0  0  0  0  0  0  0  0  0  0
   -8.4738   -2.1635    0.0000 C   0  0  0  0  0  0  0  0  0  0  0  0
   -9.5120   -3.2461    0.0000 C   0  0  0  0  0  0  0  0  0  0  0  0
   -9.4116   -0.9928    0.0000 C   0  0  0  0  0  0  0  0  0  0  0  0
  -10.0145    0.3807    0.0000 C   0  0  0  0  0  0  0  0  0  0  0  0
  -10.2413    1.8634    0.0000 C   0  0  0  0  0  0  0  0  0  0  0  0
  -10.0767    3.3544    0.0000 C   0  0  0  0  0  0  0  0  0  0  0  0
  -11.5334    3.7122    0.0000 C   0  0  0  0  0  0  0  0  0  0  0  0
   -9.5318    4.7519    0.0000 C   0  0  0  0  0  0  0  0  0  0  0  0
  -10.8462    5.4746    0.0000 O   0  0  0  0  0  0  0  0  0  0  0  0
   -8.6437    5.9608    0.0000 C   0  0  0  0  0  0  0  0  0  0  0  0
   -9.7263    6.9990    0.0000 C   0  0  0  0  0  0  0  0  0  0  0  0
   -7.4731    6.8986    0.0000 C   0  0  0  0  0  0  0  0  0  0  0  0
   -8.2501    8.1817    0.0000 O   0  0  0  0  0  0  0  0  0  0  0  0
   -6.0995    7.5015    0.0000 C   0  0  0  0  0  0  0  0  0  0  0  0
   -6.5180    8.9419    0.0000 C   0  0  0  0  0  0  0  0  0  0  0  0
   -4.6168    7.7283    0.0000 C   0  0  0  0  0  0  0  0  0  0  0  0
   -4.6482    9.2280    0.0000 O   0  0  0  0  0  0  0  0  0  0  0  0
   -3.3651   10.0050    0.0000 C   0  0  0  0  0  0  0  0  0  0  0  0
   -3.3965   11.5047    0.0000 C   0  0  0  0  0  0  0  0  0  0  0  0
   -1.9724    9.4480    0.0000 O   0  0  0  0  0  0  0  0  0  0  0  0
   -3.1259    7.5637    0.0000 C   0  0  0  0  0  0  0  0  0  0  0  0
   -2.5931    8.9659    0.0000 C   0  0  0  0  0  0  0  0  0  0  0  0
  1  2  1  0
  3  2  1  1
  3  4  1  0
  4  5  2  0
  5  6  1  0
  6  7  1  0
  7  8  1  6
  7  9  1  0
  9 10  1  0
 10 11  2  0
 11 12  1  0
 11 13  1  0
 13 14  1  0
 13 15  2  0
 15 16  1  0
 16 17  1  0
 16 18  2  0
 18 19  1  0
 19 20  1  0
 20 21  2  0
 21 22  1  0
 22 23  1  0
 23 24  1  0
 24 25  1  0
 25 26  1  0
 25 27  1  0
 27 28  1  0
 19 29  2  0
 29 30  1  0
 29 31  1  0
 31 32  2  0
 32 33  1  0
 33 34  2  0
 18 35  1  0
 35 36  1  0
 36 37  2  0
 36 38  1  0
 38 39  1  0
 38 40  2  0
 40 41  1  0
 41 42  2  0
 42 43  1  0
 43 44  1  6
 43 45  1  0
 45 46  1  6
 45 47  1  0
 47 48  1  1
 47 49  1  0
 49 50  1  1
 49 51  1  0
 51 52  1  1
 51 53  1  0
 53 54  1  6
 54 55  1  0
 55 56  1  0
 55 57  2  0
 53 58  1  0
 58 59  1  6
 58  3  1  0
 33  7  1  0
 32 10  1  0
 31 15  1  0
 28 22  1  0
M  END
>  <assay_description>  (61) 
Inhibition of OATP1B1 (unknown origin) expressed in HEK293 cells using estrone-3-sulfate substrate

>  <molecule_pref_name>  (61) 
RIFAMPIN

>  <canonical_smiles>  (61) 
CO[C@H]1/C=C/O[C@@]2(C)Oc3c(C)c(O)c4c(O)c(c(/C=N/N5CCN(C)CC5)c(O)c4c3C2=O)NC(=O)/C(C)=C\C=C\[C@H](C)[C@H](O)[C@@H](C)[C@@H](O)[C@@H](C)[C@H](OC(C)=O)[C@@H]1C

>  <pchembl_value>  (61) 
5.64

>  <standard_type>  (61) 
IC50

>  <standard_relation>  (61) 
=

>  <standard_value>  (61) 
2300.0

>  <standard_units>  (61) 
nM

>  <target_pref_name>  (61) 
Solute carrier organic anion transporter family member 1B1

>  <target_organism>  (61) 
Homo sapiens

$$$$
CHEMBL163
     RDKit          2D

 50 53  0  0  0  0  0  0  0  0999 V2000
   -9.3308    3.7259    0.0000 C   0  0  0  0  0  0  0  0  0  0  0  0
   -9.1740    2.2341    0.0000 C   0  0  0  0  0  0  0  0  0  0  0  0
  -10.3875    1.3524    0.0000 C   0  0  0  0  0  0  0  0  0  0  0  0
   -7.8037    1.6240    0.0000 C   0  0  0  0  0  0  0  0  0  0  0  0
   -7.4918    0.1568    0.0000 N   0  0  0  0  0  0  0  0  0  0  0  0
   -6.0000    0.0000    0.0000 C   0  0  0  0  0  0  0  0  0  0  0  0
   -5.2500   -1.2990    0.0000 C   0  0  0  0  0  0  0  0  0  0  0  0
   -6.0000   -2.5981    0.0000 N   0  0  0  0  0  0  0  0  0  0  0  0
   -7.5000   -2.5981    0.0000 C   0  0  0  0  0  0  0  0  0  0  0  0
   -5.2500   -3.8971    0.0000 C   0  0  0  0  0  0  0  0  0  0  0  0
   -6.0000   -5.1962    0.0000 O   0  0  0  0  0  0  0  0  0  0  0  0
   -3.7500   -3.8971    0.0000 N   0  0  0  0  0  0  0  0  0  0  0  0
   -3.0000   -5.1962    0.0000 C   0  0  0  0  0  0  0  0  0  0  0  0
   -1.5000   -5.1962    0.0000 C   0  0  0  0  0  0  0  0  0  0  0  0
   -0.7500   -6.4952    0.0000 O   0  0  0  0  0  0  0  0  0  0  0  0
   -0.7500   -3.8971    0.0000 N   0  0  0  0  0  0  0  0  0  0  0  0
    0.7500   -3.8971    0.0000 C   0  0  0  0  0  0  0  0  0  0  0  0
    1.5000   -2.5981    0.0000 C   0  0  0  0  0  0  0  0  0  0  0  0
    0.7500   -1.2990    0.0000 C   0  0  0  0  0  0  0  0  0  0  0  0
    1.5000    0.0000    0.0000 C   0  0  0  0  0  0  0  0  0  0  0  0
    0.7500    1.2990    0.0000 C   0  0  0  0  0  0  0  0  0  0  0  0
   -0.7500    1.2990    0.0000 C   0  0  0  0  0  0  0  0  0  0  0  0
   -1.5000    0.0000    0.0000 C   0  0  0  0  0  0  0  0  0  0  0  0
   -0.7500   -1.2990    0.0000 C   0  0  0  0  0  0  0  0  0  0  0  0
    1.5000   -5.1962    0.0000 C   0  0  0  0  0  0  0  0  0  0  0  0
    3.0000   -5.1962    0.0000 C   0  0  0  0  0  0  0  0  0  0  0  0
    3.7500   -3.8971    0.0000 O   0  0  0  0  0  0  0  0  0  0  0  0
    3.7500   -6.4952    0.0000 C   0  0  0  0  0  0  0  0  0  0  0  0
    5.2500   -6.4952    0.0000 C   0  0  0  0  0  0  0  0  0  0  0  0
    6.0000   -7.7942    0.0000 C   0  0  0  0  0  0  0  0  0  0  0  0
    7.5000   -7.7942    0.0000 C   0  0  0  0  0  0  0  0  0  0  0  0
    8.2500   -9.0933    0.0000 C   0  0  0  0  0  0  0  0  0  0  0  0
    7.5000  -10.3923    0.0000 C   0  0  0  0  0  0  0  0  0  0  0  0
    6.0000  -10.3923    0.0000 C   0  0  0  0  0  0  0  0  0  0  0  0
    5.2500   -9.0933    0.0000 C   0  0  0  0  0  0  0  0  0  0  0  0
    3.0000   -7.7942    0.0000 N   0  0  0  0  0  0  0  0  0  0  0  0
    1.5000   -7.7942    0.0000 C   0  0  0  0  0  0  0  0  0  0  0  0
    0.7500   -6.4952    0.0000 O   0  0  0  0  0  0  0  0  0  0  0  0
    0.7500   -9.0933    0.0000 O   0  0  0  0  0  0  0  0  0  0  0  0
   -0.7500   -9.0933    0.0000 C   0  0  0  0  0  0  0  0  0  0  0  0
   -1.5000  -10.3923    0.0000 C   0  0  0  0  0  0  0  0  0  0  0  0
   -0.8899  -11.7626    0.0000 C   0  0  0  0  0  0  0  0  0  0  0  0
   -2.0046  -12.7663    0.0000 N   0  0  0  0  0  0  0  0  0  0  0  0
   -3.3037  -12.0163    0.0000 C   0  0  0  0  0  0  0  0  0  0  0  0
   -2.9918  -10.5491    0.0000 S   0  0  0  0  0  0  0  0  0  0  0  0
   -3.7500   -6.4952    0.0000 C   0  0  0  0  0  0  0  0  0  0  0  0
   -5.2500   -6.4952    0.0000 C   0  0  0  0  0  0  0  0  0  0  0  0
   -3.0000   -7.7942    0.0000 C   0  0  0  0  0  0  0  0  0  0  0  0
   -5.3899    1.3703    0.0000 C   0  0  0  0  0  0  0  0  0  0  0  0
   -6.5046    2.3740    0.0000 S   0  0  0  0  0  0  0  0  0  0  0  0
  1  2  1  0
  2  3  1  0
  2  4  1  0
  4  5  2  0
  5  6  1  0
  6  7  1  0
  7  8  1  0
  8  9  1  0
  8 10  1  0
 10 11  2  0
 10 12  1  0
 13 12  1  6
 13 14  1  0
 14 15  2  0
 14 16  1  0
 16 17  1  0
 17 18  1  1
 18 19  1  0
 19 20  2  0
 20 21  1  0
 21 22  2  0
 22 23  1  0
 23 24  2  0
 17 25  1  0
 25 26  1  0
 26 27  1  6
 26 28  1  0
 28 29  1  6
 29 30  1  0
 30 31  2  0
 31 32  1  0
 32 33  2  0
 33 34  1  0
 34 35  2  0
 28 36  1  0
 36 37  1  0
 37 38  2  0
 37 39  1  0
 39 40  1  0
 40 41  1  0
 41 42  2  0
 42 43  1  0
 43 44  2  0
 44 45  1  0
 13 46  1  0
 46 47  1  0
 46 48  1  0
  6 49  2  0
 49 50  1  0
 50  4  1  0
 24 19  1  0
 35 30  1  0
 45 41  1  0
M  END
>  <assay_description>  (62) 
Inhibition of OATP1B1 (unknown origin) expressed in HEK293 cells using estrone-3-sulfate substrate

>  <molecule_pref_name>  (62) 
RITONAVIR

>  <canonical_smiles>  (62) 
CC(C)c1nc(CN(C)C(=O)N[C@H](C(=O)N[C@@H](Cc2ccccc2)C[C@H](O)[C@H](Cc2ccccc2)NC(=O)OCc2cncs2)C(C)C)cs1

>  <pchembl_value>  (62) 
5.30

>  <standard_type>  (62) 
IC50

>  <standard_relation>  (62) 
=

>  <standard_value>  (62) 
5000.0

>  <standard_units>  (62) 
nM

>  <target_pref_name>  (62) 
Solute carrier organic anion transporter family member 1B1

>  <target_organism>  (62) 
Homo sapiens

$$$$
CHEMBL160
     RDKit          2D

 85 85  0  0  0  0  0  0  0  0999 V2000
   12.3901   -5.1962    0.0000 C   0  0  0  0  0  0  0  0  0  0  0  0
   11.6401   -3.8971    0.0000 C   0  0  0  0  0  0  0  0  0  0  0  0
   10.1401   -3.8971    0.0000 C   0  0  0  0  0  0  0  0  0  0  0  0
    9.3901   -2.5981    0.0000 C   0  0  0  0  0  0  0  0  0  0  0  0
   10.1401   -1.2990    0.0000 C   0  0  0  0  0  0  0  0  0  0  0  0
   11.6401   -1.2990    0.0000 C   0  0  0  0  0  0  0  0  0  0  0  0
    9.3901    0.0000    0.0000 C   0  0  0  0  0  0  0  0  0  0  0  0
   10.1401    1.2990    0.0000 O   0  0  0  0  0  0  0  0  0  0  0  0
    7.8901    0.0000    0.0000 C   0  0  0  0  0  0  0  0  0  0  0  0
    7.7475    1.4932    0.0000 C   0  0  0  0  0  0  0  0  0  0  0  0
    9.2204    1.7771    0.0000 O   0  0  0  0  0  0  0  0  0  0  0  0
    7.3249    2.9324    0.0000 N   0  0  0  0  0  0  0  0  0  0  0  0
    6.6376    4.2657    0.0000 C   0  0  0  0  0  0  0  0  0  0  0  0
    7.8994    5.0767    0.0000 C   0  0  0  0  0  0  0  0  0  0  0  0
    9.2327    4.3893    0.0000 C   0  0  0  0  0  0  0  0  0  0  0  0
    5.7103    5.4448    0.0000 C   0  0  0  0  0  0  0  0  0  0  0  0
    6.7959    6.4799    0.0000 O   0  0  0  0  0  0  0  0  0  0  0  0
    4.5767    6.4271    0.0000 N   0  0  0  0  0  0  0  0  0  0  0  0
    5.4468    7.6489    0.0000 C   0  0  0  0  0  0  0  0  0  0  0  0
    3.2777    7.1771    0.0000 C   0  0  0  0  0  0  0  0  0  0  0  0
    1.8602    7.6677    0.0000 C   0  0  0  0  0  0  0  0  0  0  0  0
    2.2138    9.1254    0.0000 O   0  0  0  0  0  0  0  0  0  0  0  0
    0.3754    7.8811    0.0000 N   0  0  0  0  0  0  0  0  0  0  0  0
    0.4468    9.3794    0.0000 C   0  0  0  0  0  0  0  0  0  0  0  0
   -1.1229    7.8098    0.0000 C   0  0  0  0  0  0  0  0  0  0  0  0
   -1.3363    9.2945    0.0000 C   0  0  0  0  0  0  0  0  0  0  0  0
   -0.1573   10.2217    0.0000 C   0  0  0  0  0  0  0  0  0  0  0  0
   -0.3707   11.7065    0.0000 C   0  0  0  0  0  0  0  0  0  0  0  0
    1.2353    9.6642    0.0000 C   0  0  0  0  0  0  0  0  0  0  0  0
   -2.5806    7.4561    0.0000 C   0  0  0  0  0  0  0  0  0  0  0  0
   -3.0712    8.8736    0.0000 O   0  0  0  0  0  0  0  0  0  0  0  0
   -3.9450    6.8330    0.0000 N   0  0  0  0  0  0  0  0  0  0  0  0
   -5.1669    5.9629    0.0000 C   0  0  0  0  0  0  0  0  0  0  0  0
   -6.1492    7.0966    0.0000 C   0  0  0  0  0  0  0  0  0  0  0  0
   -5.6586    8.5141    0.0000 C   0  0  0  0  0  0  0  0  0  0  0  0
   -7.6221    6.8127    0.0000 C   0  0  0  0  0  0  0  0  0  0  0  0
   -6.2020    4.8773    0.0000 C   0  0  0  0  0  0  0  0  0  0  0  0
   -7.3811    5.8046    0.0000 O   0  0  0  0  0  0  0  0  0  0  0  0
   -7.0130    3.6154    0.0000 N   0  0  0  0  0  0  0  0  0  0  0  0
   -8.3462    4.3028    0.0000 C   0  0  0  0  0  0  0  0  0  0  0  0
   -7.5705    2.2229    0.0000 C   0  0  0  0  0  0  0  0  0  0  0  0
   -9.0097    2.6455    0.0000 C   0  0  0  0  0  0  0  0  0  0  0  0
   -9.3634    4.1032    0.0000 C   0  0  0  0  0  0  0  0  0  0  0  0
  -10.8026    4.5258    0.0000 C   0  0  0  0  0  0  0  0  0  0  0  0
   -8.2778    5.1383    0.0000 C   0  0  0  0  0  0  0  0  0  0  0  0
   -7.8544    0.7500    0.0000 C   0  0  0  0  0  0  0  0  0  0  0  0
   -9.3476    0.8926    0.0000 O   0  0  0  0  0  0  0  0  0  0  0  0
   -7.8544   -0.7500    0.0000 N   0  0  0  0  0  0  0  0  0  0  0  0
   -7.5705   -2.2229    0.0000 C   0  0  0  0  0  0  0  0  0  0  0  0
   -9.0097   -2.6455    0.0000 C   0  0  0  0  0  0  0  0  0  0  0  0
   -7.0130   -3.6154    0.0000 C   0  0  0  0  0  0  0  0  0  0  0  0
   -8.3462   -4.3028    0.0000 O   0  0  0  0  0  0  0  0  0  0  0  0
   -6.2020   -4.8773    0.0000 N   0  0  0  0  0  0  0  0  0  0  0  0
   -5.1669   -5.9629    0.0000 C   0  0  0  0  0  0  0  0  0  0  0  0
   -6.1492   -7.0966    0.0000 C   0  0  0  0  0  0  0  0  0  0  0  0
   -3.9450   -6.8330    0.0000 C   0  0  0  0  0  0  0  0  0  0  0  0
   -4.6950   -8.1320    0.0000 O   0  0  0  0  0  0  0  0  0  0  0  0
   -2.5806   -7.4561    0.0000 N   0  0  0  0  0  0  0  0  0  0  0  0
   -3.0712   -8.8736    0.0000 C   0  0  0  0  0  0  0  0  0  0  0  0
   -1.1229   -7.8098    0.0000 C   0  0  0  0  0  0  0  0  0  0  0  0
   -1.3363   -9.2945    0.0000 C   0  0  0  0  0  0  0  0  0  0  0  0
   -2.7289   -9.8520    0.0000 C   0  0  0  0  0  0  0  0  0  0  0  0
   -2.9424  -11.3367    0.0000 C   0  0  0  0  0  0  0  0  0  0  0  0
   -3.9080   -8.9248    0.0000 C   0  0  0  0  0  0  0  0  0  0  0  0
    0.3754   -7.8811    0.0000 C   0  0  0  0  0  0  0  0  0  0  0  0
    0.4468   -9.3794    0.0000 O   0  0  0  0  0  0  0  0  0  0  0  0
    1.8602   -7.6677    0.0000 N   0  0  0  0  0  0  0  0  0  0  0  0
    2.2138   -9.1254    0.0000 C   0  0  0  0  0  0  0  0  0  0  0  0
    3.2777   -7.1771    0.0000 C   0  0  0  0  0  0  0  0  0  0  0  0
    3.9008   -8.5415    0.0000 C   0  0  0  0  0  0  0  0  0  0  0  0
    3.0307   -9.7634    0.0000 C   0  0  0  0  0  0  0  0  0  0  0  0
    3.6538  -11.1278    0.0000 C   0  0  0  0  0  0  0  0  0  0  0  0
    1.5375   -9.6208    0.0000 C   0  0  0  0  0  0  0  0  0  0  0  0
    4.5767   -6.4271    0.0000 C   0  0  0  0  0  0  0  0  0  0  0  0
    5.4468   -7.6489    0.0000 O   0  0  0  0  0  0  0  0  0  0  0  0
    5.7103   -5.4448    0.0000 N   0  0  0  0  0  0  0  0  0  0  0  0
    6.7959   -6.4799    0.0000 C   0  0  0  0  0  0  0  0  0  0  0  0
    6.6376   -4.2657    0.0000 C   0  0  0  0  0  0  0  0  0  0  0  0
    7.8994   -5.0767    0.0000 C   0  0  0  0  0  0  0  0  0  0  0  0
    7.8281   -6.5750    0.0000 C   0  0  0  0  0  0  0  0  0  0  0  0
    9.2327   -4.3893    0.0000 C   0  0  0  0  0  0  0  0  0  0  0  0
    7.3249   -2.9324    0.0000 C   0  0  0  0  0  0  0  0  0  0  0  0
    8.7175   -3.4899    0.0000 O   0  0  0  0  0  0  0  0  0  0  0  0
    7.7475   -1.4932    0.0000 N   0  0  0  0  0  0  0  0  0  0  0  0
    9.2204   -1.7771    0.0000 C   0  0  0  0  0  0  0  0  0  0  0  0
  1  2  1  0
  2  3  2  0
  3  4  1  0
  4  5  1  0
  5  6  1  6
  5  7  1  0
  7  8  1  6
  7  9  1  0
  9 10  1  6
 10 11  2  0
 10 12  1  0
 12 13  1  0
 13 14  1  6
 14 15  1  0
 13 16  1  0
 16 17  2  0
 16 18  1  0
 18 19  1  0
 18 20  1  0
 20 21  1  0
 21 22  2  0
 21 23  1  0
 23 24  1  0
 23 25  1  0
 25 26  1  6
 26 27  1  0
 27 28  1  0
 27 29  1  0
 25 30  1  0
 30 31  2  0
 30 32  1  0
 32 33  1  0
 33 34  1  6
 34 35  1  0
 34 36  1  0
 33 37  1  0
 37 38  2  0
 37 39  1  0
 39 40  1  0
 39 41  1  0
 41 42  1  6
 42 43  1  0
 43 44  1  0
 43 45  1  0
 41 46  1  0
 46 47  2  0
 46 48  1  0
 48 49  1  0
 49 50  1  6
 49 51  1  0
 51 52  2  0
 51 53  1  0
 53 54  1  0
 54 55  1  1
 54 56  1  0
 56 57  2  0
 56 58  1  0
 58 59  1  0
 58 60  1  0
 60 61  1  6
 61 62  1  0
 62 63  1  0
 62 64  1  0
 60 65  1  0
 65 66  2  0
 65 67  1  0
 67 68  1  0
 67 69  1  0
 69 70  1  6
 70 71  1  0
 71 72  1  0
 71 73  1  0
 69 74  1  0
 74 75  2  0
 74 76  1  0
 76 77  1  0
 76 78  1  0
 78 79  1  6
 79 80  1  0
 79 81  1  0
 78 82  1  0
 82 83  2  0
 82 84  1  0
 84 85  1  0
 84  9  1  0
M  END
>  <assay_description>  (63) 
Inhibition of OATP1B1 (unknown origin) expressed in HEK293 cells using estrone-3-sulfate substrate

>  <molecule_pref_name>  (63) 
CYCLOSPORINE

>  <canonical_smiles>  (63) 
C/C=C/C[C@@H](C)[C@@H](O)[C@H]1C(=O)N[C@@H](CC)C(=O)N(C)CC(=O)N(C)[C@@H](CC(C)C)C(=O)N[C@@H](C(C)C)C(=O)N(C)[C@@H](CC(C)C)C(=O)N[C@@H](C)C(=O)N[C@H](C)C(=O)N(C)[C@@H](CC(C)C)C(=O)N(C)[C@@H](CC(C)C)C(=O)N(C)[C@@H](C(C)C)C(=O)N1C

>  <pchembl_value>  (63) 
5.92

>  <standard_type>  (63) 
IC50

>  <standard_relation>  (63) 
=

>  <standard_value>  (63) 
1200.0

>  <standard_units>  (63) 
nM

>  <target_pref_name>  (63) 
Solute carrier organic anion transporter family member 1B1

>  <target_organism>  (63) 
Homo sapiens

$$$$
CHEMBL160
     RDKit          2D

 85 85  0  0  0  0  0  0  0  0999 V2000
   12.3901   -5.1962    0.0000 C   0  0  0  0  0  0  0  0  0  0  0  0
   11.6401   -3.8971    0.0000 C   0  0  0  0  0  0  0  0  0  0  0  0
   10.1401   -3.8971    0.0000 C   0  0  0  0  0  0  0  0  0  0  0  0
    9.3901   -2.5981    0.0000 C   0  0  0  0  0  0  0  0  0  0  0  0
   10.1401   -1.2990    0.0000 C   0  0  0  0  0  0  0  0  0  0  0  0
   11.6401   -1.2990    0.0000 C   0  0  0  0  0  0  0  0  0  0  0  0
    9.3901    0.0000    0.0000 C   0  0  0  0  0  0  0  0  0  0  0  0
   10.1401    1.2990    0.0000 O   0  0  0  0  0  0  0  0  0  0  0  0
    7.8901    0.0000    0.0000 C   0  0  0  0  0  0  0  0  0  0  0  0
    7.7475    1.4932    0.0000 C   0  0  0  0  0  0  0  0  0  0  0  0
    9.2204    1.7771    0.0000 O   0  0  0  0  0  0  0  0  0  0  0  0
    7.3249    2.9324    0.0000 N   0  0  0  0  0  0  0  0  0  0  0  0
    6.6376    4.2657    0.0000 C   0  0  0  0  0  0  0  0  0  0  0  0
    7.8994    5.0767    0.0000 C   0  0  0  0  0  0  0  0  0  0  0  0
    9.2327    4.3893    0.0000 C   0  0  0  0  0  0  0  0  0  0  0  0
    5.7103    5.4448    0.0000 C   0  0  0  0  0  0  0  0  0  0  0  0
    6.7959    6.4799    0.0000 O   0  0  0  0  0  0  0  0  0  0  0  0
    4.5767    6.4271    0.0000 N   0  0  0  0  0  0  0  0  0  0  0  0
    5.4468    7.6489    0.0000 C   0  0  0  0  0  0  0  0  0  0  0  0
    3.2777    7.1771    0.0000 C   0  0  0  0  0  0  0  0  0  0  0  0
    1.8602    7.6677    0.0000 C   0  0  0  0  0  0  0  0  0  0  0  0
    2.2138    9.1254    0.0000 O   0  0  0  0  0  0  0  0  0  0  0  0
    0.3754    7.8811    0.0000 N   0  0  0  0  0  0  0  0  0  0  0  0
    0.4468    9.3794    0.0000 C   0  0  0  0  0  0  0  0  0  0  0  0
   -1.1229    7.8098    0.0000 C   0  0  0  0  0  0  0  0  0  0  0  0
   -1.3363    9.2945    0.0000 C   0  0  0  0  0  0  0  0  0  0  0  0
   -0.1573   10.2217    0.0000 C   0  0  0  0  0  0  0  0  0  0  0  0
   -0.3707   11.7065    0.0000 C   0  0  0  0  0  0  0  0  0  0  0  0
    1.2353    9.6642    0.0000 C   0  0  0  0  0  0  0  0  0  0  0  0
   -2.5806    7.4561    0.0000 C   0  0  0  0  0  0  0  0  0  0  0  0
   -3.0712    8.8736    0.0000 O   0  0  0  0  0  0  0  0  0  0  0  0
   -3.9450    6.8330    0.0000 N   0  0  0  0  0  0  0  0  0  0  0  0
   -5.1669    5.9629    0.0000 C   0  0  0  0  0  0  0  0  0  0  0  0
   -6.1492    7.0966    0.0000 C   0  0  0  0  0  0  0  0  0  0  0  0
   -5.6586    8.5141    0.0000 C   0  0  0  0  0  0  0  0  0  0  0  0
   -7.6221    6.8127    0.0000 C   0  0  0  0  0  0  0  0  0  0  0  0
   -6.2020    4.8773    0.0000 C   0  0  0  0  0  0  0  0  0  0  0  0
   -7.3811    5.8046    0.0000 O   0  0  0  0  0  0  0  0  0  0  0  0
   -7.0130    3.6154    0.0000 N   0  0  0  0  0  0  0  0  0  0  0  0
   -8.3462    4.3028    0.0000 C   0  0  0  0  0  0  0  0  0  0  0  0
   -7.5705    2.2229    0.0000 C   0  0  0  0  0  0  0  0  0  0  0  0
   -9.0097    2.6455    0.0000 C   0  0  0  0  0  0  0  0  0  0  0  0
   -9.3634    4.1032    0.0000 C   0  0  0  0  0  0  0  0  0  0  0  0
  -10.8026    4.5258    0.0000 C   0  0  0  0  0  0  0  0  0  0  0  0
   -8.2778    5.1383    0.0000 C   0  0  0  0  0  0  0  0  0  0  0  0
   -7.8544    0.7500    0.0000 C   0  0  0  0  0  0  0  0  0  0  0  0
   -9.3476    0.8926    0.0000 O   0  0  0  0  0  0  0  0  0  0  0  0
   -7.8544   -0.7500    0.0000 N   0  0  0  0  0  0  0  0  0  0  0  0
   -7.5705   -2.2229    0.0000 C   0  0  0  0  0  0  0  0  0  0  0  0
   -9.0097   -2.6455    0.0000 C   0  0  0  0  0  0  0  0  0  0  0  0
   -7.0130   -3.6154    0.0000 C   0  0  0  0  0  0  0  0  0  0  0  0
   -8.3462   -4.3028    0.0000 O   0  0  0  0  0  0  0  0  0  0  0  0
   -6.2020   -4.8773    0.0000 N   0  0  0  0  0  0  0  0  0  0  0  0
   -5.1669   -5.9629    0.0000 C   0  0  0  0  0  0  0  0  0  0  0  0
   -6.1492   -7.0966    0.0000 C   0  0  0  0  0  0  0  0  0  0  0  0
   -3.9450   -6.8330    0.0000 C   0  0  0  0  0  0  0  0  0  0  0  0
   -4.6950   -8.1320    0.0000 O   0  0  0  0  0  0  0  0  0  0  0  0
   -2.5806   -7.4561    0.0000 N   0  0  0  0  0  0  0  0  0  0  0  0
   -3.0712   -8.8736    0.0000 C   0  0  0  0  0  0  0  0  0  0  0  0
   -1.1229   -7.8098    0.0000 C   0  0  0  0  0  0  0  0  0  0  0  0
   -1.3363   -9.2945    0.0000 C   0  0  0  0  0  0  0  0  0  0  0  0
   -2.7289   -9.8520    0.0000 C   0  0  0  0  0  0  0  0  0  0  0  0
   -2.9424  -11.3367    0.0000 C   0  0  0  0  0  0  0  0  0  0  0  0
   -3.9080   -8.9248    0.0000 C   0  0  0  0  0  0  0  0  0  0  0  0
    0.3754   -7.8811    0.0000 C   0  0  0  0  0  0  0  0  0  0  0  0
    0.4468   -9.3794    0.0000 O   0  0  0  0  0  0  0  0  0  0  0  0
    1.8602   -7.6677    0.0000 N   0  0  0  0  0  0  0  0  0  0  0  0
    2.2138   -9.1254    0.0000 C   0  0  0  0  0  0  0  0  0  0  0  0
    3.2777   -7.1771    0.0000 C   0  0  0  0  0  0  0  0  0  0  0  0
    3.9008   -8.5415    0.0000 C   0  0  0  0  0  0  0  0  0  0  0  0
    3.0307   -9.7634    0.0000 C   0  0  0  0  0  0  0  0  0  0  0  0
    3.6538  -11.1278    0.0000 C   0  0  0  0  0  0  0  0  0  0  0  0
    1.5375   -9.6208    0.0000 C   0  0  0  0  0  0  0  0  0  0  0  0
    4.5767   -6.4271    0.0000 C   0  0  0  0  0  0  0  0  0  0  0  0
    5.4468   -7.6489    0.0000 O   0  0  0  0  0  0  0  0  0  0  0  0
    5.7103   -5.4448    0.0000 N   0  0  0  0  0  0  0  0  0  0  0  0
    6.7959   -6.4799    0.0000 C   0  0  0  0  0  0  0  0  0  0  0  0
    6.6376   -4.2657    0.0000 C   0  0  0  0  0  0  0  0  0  0  0  0
    7.8994   -5.0767    0.0000 C   0  0  0  0  0  0  0  0  0  0  0  0
    7.8281   -6.5750    0.0000 C   0  0  0  0  0  0  0  0  0  0  0  0
    9.2327   -4.3893    0.0000 C   0  0  0  0  0  0  0  0  0  0  0  0
    7.3249   -2.9324    0.0000 C   0  0  0  0  0  0  0  0  0  0  0  0
    8.7175   -3.4899    0.0000 O   0  0  0  0  0  0  0  0  0  0  0  0
    7.7475   -1.4932    0.0000 N   0  0  0  0  0  0  0  0  0  0  0  0
    9.2204   -1.7771    0.0000 C   0  0  0  0  0  0  0  0  0  0  0  0
  1  2  1  0
  2  3  2  0
  3  4  1  0
  4  5  1  0
  5  6  1  6
  5  7  1  0
  7  8  1  6
  7  9  1  0
  9 10  1  6
 10 11  2  0
 10 12  1  0
 12 13  1  0
 13 14  1  6
 14 15  1  0
 13 16  1  0
 16 17  2  0
 16 18  1  0
 18 19  1  0
 18 20  1  0
 20 21  1  0
 21 22  2  0
 21 23  1  0
 23 24  1  0
 23 25  1  0
 25 26  1  6
 26 27  1  0
 27 28  1  0
 27 29  1  0
 25 30  1  0
 30 31  2  0
 30 32  1  0
 32 33  1  0
 33 34  1  6
 34 35  1  0
 34 36  1  0
 33 37  1  0
 37 38  2  0
 37 39  1  0
 39 40  1  0
 39 41  1  0
 41 42  1  6
 42 43  1  0
 43 44  1  0
 43 45  1  0
 41 46  1  0
 46 47  2  0
 46 48  1  0
 48 49  1  0
 49 50  1  6
 49 51  1  0
 51 52  2  0
 51 53  1  0
 53 54  1  0
 54 55  1  1
 54 56  1  0
 56 57  2  0
 56 58  1  0
 58 59  1  0
 58 60  1  0
 60 61  1  6
 61 62  1  0
 62 63  1  0
 62 64  1  0
 60 65  1  0
 65 66  2  0
 65 67  1  0
 67 68  1  0
 67 69  1  0
 69 70  1  6
 70 71  1  0
 71 72  1  0
 71 73  1  0
 69 74  1  0
 74 75  2  0
 74 76  1  0
 76 77  1  0
 76 78  1  0
 78 79  1  6
 79 80  1  0
 79 81  1  0
 78 82  1  0
 82 83  2  0
 82 84  1  0
 84 85  1  0
 84  9  1  0
M  END
>  <assay_description>  (64) 
Inhibition of OATP1B1 (unknown origin) expressed in HEK293 cells assessed as protein-mediated pitavastatin uptake

>  <molecule_pref_name>  (64) 
CYCLOSPORINE

>  <canonical_smiles>  (64) 
C/C=C/C[C@@H](C)[C@@H](O)[C@H]1C(=O)N[C@@H](CC)C(=O)N(C)CC(=O)N(C)[C@@H](CC(C)C)C(=O)N[C@@H](C(C)C)C(=O)N(C)[C@@H](CC(C)C)C(=O)N[C@@H](C)C(=O)N[C@H](C)C(=O)N(C)[C@@H](CC(C)C)C(=O)N(C)[C@@H](CC(C)C)C(=O)N(C)[C@@H](C(C)C)C(=O)N1C

>  <pchembl_value>  (64) 
6.70

>  <standard_type>  (64) 
Ki

>  <standard_relation>  (64) 
=

>  <standard_value>  (64) 
200.0

>  <standard_units>  (64) 
nM

>  <target_pref_name>  (64) 
Solute carrier organic anion transporter family member 1B1

>  <target_organism>  (64) 
Homo sapiens

$$$$
CHEMBL6966
     RDKit          2D

 33 34  0  0  0  0  0  0  0  0999 V2000
    3.7500   -1.2990    0.0000 C   0  0  0  0  0  0  0  0  0  0  0  0
    3.0000    0.0000    0.0000 O   0  0  0  0  0  0  0  0  0  0  0  0
    1.5000    0.0000    0.0000 C   0  0  0  0  0  0  0  0  0  0  0  0
    0.7500   -1.2990    0.0000 C   0  0  0  0  0  0  0  0  0  0  0  0
   -0.7500   -1.2990    0.0000 C   0  0  0  0  0  0  0  0  0  0  0  0
   -1.5000    0.0000    0.0000 C   0  0  0  0  0  0  0  0  0  0  0  0
   -3.0000    0.0000    0.0000 C   0  0  0  0  0  0  0  0  0  0  0  0
   -3.7500    1.2990    0.0000 C   0  0  0  0  0  0  0  0  0  0  0  0
   -5.2500    1.2990    0.0000 N   0  0  0  0  0  0  0  0  0  0  0  0
   -6.0000    2.5981    0.0000 C   0  0  0  0  0  0  0  0  0  0  0  0
   -6.0000    0.0000    0.0000 C   0  0  0  0  0  0  0  0  0  0  0  0
   -7.5000    0.0000    0.0000 C   0  0  0  0  0  0  0  0  0  0  0  0
   -8.2500   -1.2990    0.0000 C   0  0  0  0  0  0  0  0  0  0  0  0
   -9.7500   -1.2990    0.0000 C   0  0  0  0  0  0  0  0  0  0  0  0
   -9.7500    0.2010    0.0000 C   0  0  0  0  0  0  0  0  0  0  0  0
   -9.7500    1.7010    0.0000 N   0  0  0  0  0  0  0  0  0  0  0  0
   -9.7500   -2.7990    0.0000 C   0  0  0  0  0  0  0  0  0  0  0  0
  -11.0490   -3.5490    0.0000 C   0  0  0  0  0  0  0  0  0  0  0  0
  -11.0490   -5.0490    0.0000 C   0  0  0  0  0  0  0  0  0  0  0  0
   -9.7500   -5.7990    0.0000 C   0  0  0  0  0  0  0  0  0  0  0  0
   -9.7500   -7.2990    0.0000 O   0  0  0  0  0  0  0  0  0  0  0  0
  -11.0490   -8.0490    0.0000 C   0  0  0  0  0  0  0  0  0  0  0  0
   -8.4510   -5.0490    0.0000 C   0  0  0  0  0  0  0  0  0  0  0  0
   -7.1519   -5.7990    0.0000 O   0  0  0  0  0  0  0  0  0  0  0  0
   -5.8529   -5.0490    0.0000 C   0  0  0  0  0  0  0  0  0  0  0  0
   -8.4510   -3.5490    0.0000 C   0  0  0  0  0  0  0  0  0  0  0  0
  -11.2500   -1.2990    0.0000 C   0  0  0  0  0  0  0  0  0  0  0  0
  -12.0000    0.0000    0.0000 C   0  0  0  0  0  0  0  0  0  0  0  0
  -12.0000   -2.5981    0.0000 C   0  0  0  0  0  0  0  0  0  0  0  0
   -0.7500    1.2990    0.0000 C   0  0  0  0  0  0  0  0  0  0  0  0
    0.7500    1.2990    0.0000 C   0  0  0  0  0  0  0  0  0  0  0  0
    1.5000    2.5981    0.0000 O   0  0  0  0  0  0  0  0  0  0  0  0
    0.7500    3.8971    0.0000 C   0  0  0  0  0  0  0  0  0  0  0  0
  1  2  1  0
  2  3  1  0
  3  4  2  0
  4  5  1  0
  5  6  2  0
  6  7  1  0
  7  8  1  0
  8  9  1  0
  9 10  1  0
  9 11  1  0
 11 12  1  0
 12 13  1  0
 13 14  1  0
 14 15  1  0
 15 16  3  0
 14 17  1  0
 17 18  2  0
 18 19  1  0
 19 20  2  0
 20 21  1  0
 21 22  1  0
 20 23  1  0
 23 24  1  0
 24 25  1  0
 23 26  2  0
 14 27  1  0
 27 28  1  0
 27 29  1  0
  6 30  1  0
 30 31  2  0
 31 32  1  0
 32 33  1  0
 31  3  1  0
 26 17  1  0
M  END
>  <assay_description>  (65) 
Inhibition of OATP1B1 (unknown origin) expressed in HEK293 cells assessed as protein-mediated pitavastatin uptake

>  <molecule_pref_name>  (65) 
VERAPAMIL

>  <canonical_smiles>  (65) 
COc1ccc(CCN(C)CCCC(C#N)(c2ccc(OC)c(OC)c2)C(C)C)cc1OC

>  <pchembl_value>  (65) 
4.28

>  <standard_type>  (65) 
Ki

>  <standard_relation>  (65) 
=

>  <standard_value>  (65) 
52000.0

>  <standard_units>  (65) 
nM

>  <target_pref_name>  (65) 
Solute carrier organic anion transporter family member 1B1

>  <target_organism>  (65) 
Homo sapiens

$$$$
CHEMBL1401508
     RDKit          2D

 35 39  0  0  0  0  0  0  0  0999 V2000
   -0.7500   -9.0933    0.0000 C   0  0  0  0  0  0  0  0  0  0  0  0
    0.7500   -9.0933    0.0000 O   0  0  0  0  0  0  0  0  0  0  0  0
    1.5000   -7.7942    0.0000 C   0  0  0  0  0  0  0  0  0  0  0  0
    0.7500   -6.4952    0.0000 C   0  0  0  0  0  0  0  0  0  0  0  0
    1.5000   -5.1962    0.0000 C   0  0  0  0  0  0  0  0  0  0  0  0
    0.7500   -3.8971    0.0000 C   0  0  0  0  0  0  0  0  0  0  0  0
    1.5000   -2.5981    0.0000 O   0  0  0  0  0  0  0  0  0  0  0  0
    0.7500   -1.2990    0.0000 C   0  0  0  0  0  0  0  0  0  0  0  0
    1.5000    0.0000    0.0000 C   0  0  0  0  0  0  0  0  0  0  0  0
    0.7500    1.2990    0.0000 C   0  0  0  0  0  0  0  0  0  0  0  0
    1.5000    2.5981    0.0000 C   0  0  0  0  0  0  0  0  0  0  0  0
    0.7500    3.8971    0.0000 O   0  0  0  0  0  0  0  0  0  0  0  0
    1.5000    5.1962    0.0000 C   0  0  0  0  0  0  0  0  0  0  0  0
    0.7500    6.4952    0.0000 C   0  0  0  0  0  0  0  0  0  0  0  0
    1.5000    7.7942    0.0000 C   0  0  0  0  0  0  0  0  0  0  0  0
    0.7500    9.0933    0.0000 O   0  0  0  0  0  0  0  0  0  0  0  0
    3.0000    7.7942    0.0000 C   0  0  0  0  0  0  0  0  0  0  0  0
    3.7500    6.4952    0.0000 C   0  0  0  0  0  0  0  0  0  0  0  0
    5.2500    6.4952    0.0000 O   0  0  0  0  0  0  0  0  0  0  0  0
    3.0000    5.1962    0.0000 C   0  0  0  0  0  0  0  0  0  0  0  0
    3.7500    3.8971    0.0000 C   0  0  0  0  0  0  0  0  0  0  0  0
    5.2500    3.8971    0.0000 O   0  0  0  0  0  0  0  0  0  0  0  0
    3.0000    2.5981    0.0000 C   0  0  0  0  0  0  0  0  0  0  0  0
    3.7500    1.2990    0.0000 O   0  0  0  0  0  0  0  0  0  0  0  0
   -0.7500    1.2990    0.0000 C   0  0  0  0  0  0  0  0  0  0  0  0
   -1.5000    0.0000    0.0000 C   0  0  0  0  0  0  0  0  0  0  0  0
   -0.7500   -1.2990    0.0000 C   0  0  0  0  0  0  0  0  0  0  0  0
   -1.5000   -2.5981    0.0000 O   0  0  0  0  0  0  0  0  0  0  0  0
   -0.7500   -3.8971    0.0000 C   0  0  0  0  0  0  0  0  0  0  0  0
   -1.5000   -5.1962    0.0000 C   0  0  0  0  0  0  0  0  0  0  0  0
   -3.0000   -5.1962    0.0000 O   0  0  0  0  0  0  0  0  0  0  0  0
    3.0000   -5.1962    0.0000 C   0  0  0  0  0  0  0  0  0  0  0  0
    3.7500   -6.4952    0.0000 C   0  0  0  0  0  0  0  0  0  0  0  0
    3.0000   -7.7942    0.0000 C   0  0  0  0  0  0  0  0  0  0  0  0
    3.7500   -9.0933    0.0000 O   0  0  0  0  0  0  0  0  0  0  0  0
  1  2  1  0
  2  3  1  0
  3  4  2  0
  4  5  1  0
  5  6  1  0
  6  7  1  0
  7  8  1  0
  8  9  2  0
  9 10  1  0
 10 11  1  0
 11 12  1  0
 12 13  1  0
 13 14  2  0
 14 15  1  0
 15 16  1  0
 15 17  2  0
 17 18  1  0
 18 19  1  0
 18 20  2  0
 20 21  1  0
 21 22  2  0
 21 23  1  0
 23 24  1  0
 10 25  2  0
 25 26  1  0
 26 27  2  0
 27 28  1  0
 28 29  1  0
 29 30  1  0
 30 31  1  0
  5 32  2  0
 32 33  1  0
 33 34  2  0
 34 35  1  0
 34  3  1  0
 29  6  1  0
 27  8  1  0
 23 11  1  0
 20 13  1  0
M  END
>  <assay_description>  (66) 
Inhibition of OATP1B1 (unknown origin) expressed in HEK293 cells assessed as reduction of [3H]estradiol-17beta-glucuronide uptake after 3 mins by beta-counting

>  <molecule_pref_name>  (66) 
SILIBININ

>  <canonical_smiles>  (66) 
COc1cc(C2Oc3cc(C4Oc5cc(O)cc(O)c5C(=O)C4O)ccc3OC2CO)ccc1O

>  <pchembl_value>  (66) 
5.01

>  <standard_type>  (66) 
IC50

>  <standard_relation>  (66) 
=

>  <standard_value>  (66) 
9700.0

>  <standard_units>  (66) 
nM

>  <target_pref_name>  (66) 
Solute carrier organic anion transporter family member 1B1

>  <target_organism>  (66) 
Homo sapiens

$$$$
CHEMBL592675
     RDKit          2D

 35 39  0  0  0  0  0  0  0  0999 V2000
   -0.7500   -9.0933    0.0000 C   0  0  0  0  0  0  0  0  0  0  0  0
    0.7500   -9.0933    0.0000 O   0  0  0  0  0  0  0  0  0  0  0  0
    1.5000   -7.7942    0.0000 C   0  0  0  0  0  0  0  0  0  0  0  0
    0.7500   -6.4952    0.0000 C   0  0  0  0  0  0  0  0  0  0  0  0
    1.5000   -5.1962    0.0000 C   0  0  0  0  0  0  0  0  0  0  0  0
    0.7500   -3.8971    0.0000 C   0  0  0  0  0  0  0  0  0  0  0  0
    1.5000   -2.5981    0.0000 O   0  0  0  0  0  0  0  0  0  0  0  0
    0.7500   -1.2990    0.0000 C   0  0  0  0  0  0  0  0  0  0  0  0
    1.5000    0.0000    0.0000 C   0  0  0  0  0  0  0  0  0  0  0  0
    0.7500    1.2990    0.0000 C   0  0  0  0  0  0  0  0  0  0  0  0
    1.5000    2.5981    0.0000 C   0  0  0  0  0  0  0  0  0  0  0  0
    0.7500    3.8971    0.0000 O   0  0  0  0  0  0  0  0  0  0  0  0
    1.5000    5.1962    0.0000 C   0  0  0  0  0  0  0  0  0  0  0  0
    0.7500    6.4952    0.0000 C   0  0  0  0  0  0  0  0  0  0  0  0
    1.5000    7.7942    0.0000 C   0  0  0  0  0  0  0  0  0  0  0  0
    0.7500    9.0933    0.0000 O   0  0  0  0  0  0  0  0  0  0  0  0
    3.0000    7.7942    0.0000 C   0  0  0  0  0  0  0  0  0  0  0  0
    3.7500    6.4952    0.0000 C   0  0  0  0  0  0  0  0  0  0  0  0
    5.2500    6.4952    0.0000 O   0  0  0  0  0  0  0  0  0  0  0  0
    3.0000    5.1962    0.0000 C   0  0  0  0  0  0  0  0  0  0  0  0
    3.7500    3.8971    0.0000 C   0  0  0  0  0  0  0  0  0  0  0  0
    5.2500    3.8971    0.0000 O   0  0  0  0  0  0  0  0  0  0  0  0
    3.0000    2.5981    0.0000 C   0  0  0  0  0  0  0  0  0  0  0  0
    3.7500    1.2990    0.0000 O   0  0  0  0  0  0  0  0  0  0  0  0
   -0.7500    1.2990    0.0000 C   0  0  0  0  0  0  0  0  0  0  0  0
   -1.5000    0.0000    0.0000 C   0  0  0  0  0  0  0  0  0  0  0  0
   -0.7500   -1.2990    0.0000 C   0  0  0  0  0  0  0  0  0  0  0  0
   -1.5000   -2.5981    0.0000 O   0  0  0  0  0  0  0  0  0  0  0  0
   -0.7500   -3.8971    0.0000 C   0  0  0  0  0  0  0  0  0  0  0  0
   -1.5000   -5.1962    0.0000 C   0  0  0  0  0  0  0  0  0  0  0  0
   -3.0000   -5.1962    0.0000 O   0  0  0  0  0  0  0  0  0  0  0  0
    3.0000   -5.1962    0.0000 C   0  0  0  0  0  0  0  0  0  0  0  0
    3.7500   -6.4952    0.0000 C   0  0  0  0  0  0  0  0  0  0  0  0
    3.0000   -7.7942    0.0000 C   0  0  0  0  0  0  0  0  0  0  0  0
    3.7500   -9.0933    0.0000 O   0  0  0  0  0  0  0  0  0  0  0  0
  1  2  1  0
  2  3  1  0
  3  4  2  0
  4  5  1  0
  6  5  1  1
  6  7  1  0
  7  8  1  0
  8  9  2  0
  9 10  1  0
 11 10  1  1
 11 12  1  0
 12 13  1  0
 13 14  2  0
 14 15  1  0
 15 16  1  0
 15 17  2  0
 17 18  1  0
 18 19  1  0
 18 20  2  0
 20 21  1  0
 21 22  2  0
 21 23  1  0
 23 24  1  6
 10 25  2  0
 25 26  1  0
 26 27  2  0
 27 28  1  0
 28 29  1  0
 29 30  1  6
 30 31  1  0
  5 32  2  0
 32 33  1  0
 33 34  2  0
 34 35  1  0
 34  3  1  0
 29  6  1  0
 27  8  1  0
 23 11  1  0
 20 13  1  0
M  END
>  <assay_description>  (67) 
Inhibition of OATP1B1 (unknown origin) expressed in HEK293 cells assessed as reduction of [3H]estradiol-17beta-glucuronide uptake after 3 mins by beta-counting

>  <molecule_pref_name>  (67) 
SILYBIN B

>  <canonical_smiles>  (67) 
COc1cc([C@@H]2Oc3cc([C@H]4Oc5cc(O)cc(O)c5C(=O)[C@@H]4O)ccc3O[C@H]2CO)ccc1O

>  <pchembl_value>  (67) 
5.07

>  <standard_type>  (67) 
IC50

>  <standard_relation>  (67) 
=

>  <standard_value>  (67) 
8500.0

>  <standard_units>  (67) 
nM

>  <target_pref_name>  (67) 
Solute carrier organic anion transporter family member 1B1

>  <target_organism>  (67) 
Homo sapiens

$$$$
CHEMBL130493
     RDKit          2D

 35 39  0  0  0  0  0  0  0  0999 V2000
    6.6731  -13.5488    0.0000 C   0  0  0  0  0  0  0  0  0  0  0  0
    7.9721  -12.7988    0.0000 O   0  0  0  0  0  0  0  0  0  0  0  0
    7.9721  -11.2988    0.0000 C   0  0  0  0  0  0  0  0  0  0  0  0
    6.6731  -10.5488    0.0000 C   0  0  0  0  0  0  0  0  0  0  0  0
    6.6731   -9.0488    0.0000 C   0  0  0  0  0  0  0  0  0  0  0  0
    5.3740   -8.2988    0.0000 C   0  0  0  0  0  0  0  0  0  0  0  0
    4.0037   -8.9089    0.0000 O   0  0  0  0  0  0  0  0  0  0  0  0
    3.0000   -7.7942    0.0000 C   0  0  0  0  0  0  0  0  0  0  0  0
    1.5000   -7.7942    0.0000 C   0  0  0  0  0  0  0  0  0  0  0  0
    0.7500   -9.0933    0.0000 O   0  0  0  0  0  0  0  0  0  0  0  0
    0.7500   -6.4952    0.0000 C   0  0  0  0  0  0  0  0  0  0  0  0
    1.5000   -5.1962    0.0000 C   0  0  0  0  0  0  0  0  0  0  0  0
    0.7500   -3.8971    0.0000 C   0  0  0  0  0  0  0  0  0  0  0  0
    1.5000   -2.5981    0.0000 O   0  0  0  0  0  0  0  0  0  0  0  0
    0.7500   -1.2990    0.0000 C   0  0  0  0  0  0  0  0  0  0  0  0
    1.5000    0.0000    0.0000 C   0  0  0  0  0  0  0  0  0  0  0  0
    0.7500    1.2990    0.0000 C   0  0  0  0  0  0  0  0  0  0  0  0
    1.5000    2.5981    0.0000 O   0  0  0  0  0  0  0  0  0  0  0  0
   -0.7500    1.2990    0.0000 C   0  0  0  0  0  0  0  0  0  0  0  0
   -1.5000    0.0000    0.0000 C   0  0  0  0  0  0  0  0  0  0  0  0
   -3.0000    0.0000    0.0000 O   0  0  0  0  0  0  0  0  0  0  0  0
   -0.7500   -1.2990    0.0000 C   0  0  0  0  0  0  0  0  0  0  0  0
   -1.5000   -2.5981    0.0000 C   0  0  0  0  0  0  0  0  0  0  0  0
   -3.0000   -2.5981    0.0000 O   0  0  0  0  0  0  0  0  0  0  0  0
   -0.7500   -3.8971    0.0000 C   0  0  0  0  0  0  0  0  0  0  0  0
   -1.5000   -5.1962    0.0000 O   0  0  0  0  0  0  0  0  0  0  0  0
    3.0000   -5.1962    0.0000 C   0  0  0  0  0  0  0  0  0  0  0  0
    3.7500   -6.4952    0.0000 C   0  0  0  0  0  0  0  0  0  0  0  0
    5.2172   -6.8071    0.0000 C   0  0  0  0  0  0  0  0  0  0  0  0
    6.3319   -5.8034    0.0000 C   0  0  0  0  0  0  0  0  0  0  0  0
    6.0201   -4.3361    0.0000 O   0  0  0  0  0  0  0  0  0  0  0  0
    7.9721   -8.2988    0.0000 C   0  0  0  0  0  0  0  0  0  0  0  0
    9.2711   -9.0488    0.0000 C   0  0  0  0  0  0  0  0  0  0  0  0
    9.2711  -10.5488    0.0000 C   0  0  0  0  0  0  0  0  0  0  0  0
   10.5702  -11.2988    0.0000 O   0  0  0  0  0  0  0  0  0  0  0  0
  1  2  1  0
  2  3  1  0
  3  4  2  0
  4  5  1  0
  6  5  1  6
  6  7  1  0
  7  8  1  0
  8  9  2  0
  9 10  1  0
  9 11  1  0
 11 12  2  0
 13 12  1  6
 13 14  1  0
 14 15  1  0
 15 16  2  0
 16 17  1  0
 17 18  1  0
 17 19  2  0
 19 20  1  0
 20 21  1  0
 20 22  2  0
 22 23  1  0
 23 24  2  0
 23 25  1  0
 25 26  1  1
 12 27  1  0
 27 28  2  0
 28 29  1  0
 29 30  1  1
 30 31  1  0
  5 32  2  0
 32 33  1  0
 33 34  2  0
 34 35  1  0
 34  3  1  0
 29  6  1  0
 28  8  1  0
 25 13  1  0
 22 15  1  0
M  END
>  <assay_description>  (68) 
Inhibition of OATP1B1 (unknown origin) expressed in HEK293 cells assessed as reduction of [3H]estradiol-17beta-glucuronide uptake after 3 mins by beta-counting

>  <molecule_pref_name>  (68) 
SILICRISTIN

>  <canonical_smiles>  (68) 
COc1cc([C@@H]2Oc3c(O)cc([C@H]4Oc5cc(O)cc(O)c5C(=O)[C@@H]4O)cc3[C@H]2CO)ccc1O

>  <pchembl_value>  (68) 
5.05

>  <standard_type>  (68) 
IC50

>  <standard_relation>  (68) 
=

>  <standard_value>  (68) 
9000.0

>  <standard_units>  (68) 
nM

>  <target_pref_name>  (68) 
Solute carrier organic anion transporter family member 1B1

>  <target_organism>  (68) 
Homo sapiens

$$$$
CHEMBL461101
     RDKit          2D

 33 36  0  0  0  0  0  0  0  0999 V2000
    4.6740   -4.8322    0.0000 C   0  0  0  0  0  0  0  0  0  0  0  0
    3.3037   -4.2221    0.0000 C   0  0  0  0  0  0  0  0  0  0  0  0
    2.9918   -2.7549    0.0000 N   0  0  0  0  0  0  0  0  0  0  0  0
    1.5000   -2.5981    0.0000 N   0  0  0  0  0  0  0  0  0  0  0  0
    0.7500   -1.2990    0.0000 C   0  0  0  0  0  0  0  0  0  0  0  0
    1.5000    0.0000    0.0000 C   0  0  0  0  0  0  0  0  0  0  0  0
    0.7500    1.2990    0.0000 C   0  0  0  0  0  0  0  0  0  0  0  0
   -0.7500    1.2990    0.0000 C   0  0  0  0  0  0  0  0  0  0  0  0
   -1.5000    2.5981    0.0000 C   0  0  0  0  0  0  0  0  0  0  0  0
   -1.5000    0.0000    0.0000 C   0  0  0  0  0  0  0  0  0  0  0  0
   -3.0000    0.0000    0.0000 C   0  0  0  0  0  0  0  0  0  0  0  0
   -0.7500   -1.2990    0.0000 C   0  0  0  0  0  0  0  0  0  0  0  0
    0.8899   -3.9684    0.0000 C   0  0  0  0  0  0  0  0  0  0  0  0
   -0.5773   -4.2803    0.0000 O   0  0  0  0  0  0  0  0  0  0  0  0
    2.0046   -4.9721    0.0000 C   0  0  0  0  0  0  0  0  0  0  0  0
    1.8478   -6.4639    0.0000 N   0  0  0  0  0  0  0  0  0  0  0  0
    0.4775   -7.0740    0.0000 N   0  0  0  0  0  0  0  0  0  0  0  0
    0.3207   -8.5658    0.0000 C   0  0  0  0  0  0  0  0  0  0  0  0
   -1.0496   -9.1759    0.0000 C   0  0  0  0  0  0  0  0  0  0  0  0
   -1.2064  -10.6676    0.0000 C   0  0  0  0  0  0  0  0  0  0  0  0
    0.0071  -11.5493    0.0000 C   0  0  0  0  0  0  0  0  0  0  0  0
    1.3774  -10.9392    0.0000 C   0  0  0  0  0  0  0  0  0  0  0  0
    2.5910  -11.8209    0.0000 C   0  0  0  0  0  0  0  0  0  0  0  0
    2.4342  -13.3127    0.0000 C   0  0  0  0  0  0  0  0  0  0  0  0
    3.6477  -14.1944    0.0000 C   0  0  0  0  0  0  0  0  0  0  0  0
    5.0180  -13.5843    0.0000 C   0  0  0  0  0  0  0  0  0  0  0  0
    5.1748  -12.0925    0.0000 C   0  0  0  0  0  0  0  0  0  0  0  0
    6.5451  -11.4824    0.0000 C   0  0  0  0  0  0  0  0  0  0  0  0
    6.7019   -9.9906    0.0000 O   0  0  0  0  0  0  0  0  0  0  0  0
    7.7587  -12.3640    0.0000 O   0  0  0  0  0  0  0  0  0  0  0  0
    3.9613  -11.2108    0.0000 C   0  0  0  0  0  0  0  0  0  0  0  0
    1.5342   -9.4474    0.0000 C   0  0  0  0  0  0  0  0  0  0  0  0
    2.9046   -8.8373    0.0000 O   0  0  0  0  0  0  0  0  0  0  0  0
  1  2  1  0
  2  3  2  0
  3  4  1  0
  4  5  1  0
  5  6  2  0
  6  7  1  0
  7  8  2  0
  8  9  1  0
  8 10  1  0
 10 11  1  0
 10 12  2  0
  4 13  1  0
 13 14  2  0
 13 15  1  0
 15 16  2  0
 16 17  1  0
 17 18  1  0
 18 19  2  0
 19 20  1  0
 20 21  2  0
 21 22  1  0
 22 23  1  0
 23 24  2  0
 24 25  1  0
 25 26  2  0
 26 27  1  0
 27 28  1  0
 28 29  2  0
 28 30  1  0
 27 31  2  0
 22 32  2  0
 32 33  1  0
 15  2  1  0
 32 18  1  0
 12  5  1  0
 31 23  1  0
M  END
>  <assay_description>  (69) 
Inhibition of OATP1B1-mediated [3H]estrone-3-sulfate uptake in human OATP1B1 expressing HEK293/PDZK1 cells by scintillation counting

>  <molecule_pref_name>  (69) 
ELTROMBOPAG

>  <canonical_smiles>  (69) 
CC1=NN(c2ccc(C)c(C)c2)C(=O)/C1=N\Nc1cccc(-c2cccc(C(=O)O)c2)c1O

>  <pchembl_value>  (69) 
4.83

>  <standard_type>  (69) 
Ki

>  <standard_relation>  (69) 
=

>  <standard_value>  (69) 
14900.0

>  <standard_units>  (69) 
nM

>  <target_pref_name>  (69) 
Solute carrier organic anion transporter family member 1B1

>  <target_organism>  (69) 
Homo sapiens

$$$$
CHEMBL3775889
     RDKit          2D

 17 18  0  0  0  0  0  0  0  0999 V2000
    1.6727   -5.5793    0.0000 C   0  0  0  0  0  0  0  0  0  0  0  0
    3.1399   -5.2674    0.0000 C   0  0  0  0  0  0  0  0  0  0  0  0
    4.2546   -6.2711    0.0000 C   0  0  0  0  0  0  0  0  0  0  0  0
    5.5537   -5.5211    0.0000 C   0  0  0  0  0  0  0  0  0  0  0  0
    5.2418   -4.0539    0.0000 S   0  0  0  0  0  0  0  0  0  0  0  0
    3.7500   -3.8971    0.0000 C   0  0  0  0  0  0  0  0  0  0  0  0
    3.0000   -2.5981    0.0000 C   0  0  0  0  0  0  0  0  0  0  0  0
    1.5000   -2.5981    0.0000 N   0  0  0  0  0  0  0  0  0  0  0  0
    0.7500   -1.2990    0.0000 C   0  0  0  0  0  0  0  0  0  0  0  0
    1.5000    0.0000    0.0000 C   0  0  0  0  0  0  0  0  0  0  0  0
    0.7500    1.2990    0.0000 N   0  0  0  0  0  0  0  0  0  0  0  0
   -0.7500    1.2990    0.0000 C   0  0  0  0  0  0  0  0  0  0  0  0
   -1.5000    0.0000    0.0000 C   0  0  0  0  0  0  0  0  0  0  0  0
   -0.7500   -1.2990    0.0000 C   0  0  0  0  0  0  0  0  0  0  0  0
   -1.5000   -2.5981    0.0000 C   0  0  0  0  0  0  0  0  0  0  0  0
   -0.7500   -3.8971    0.0000 O   0  0  0  0  0  0  0  0  0  0  0  0
   -3.0000   -2.5981    0.0000 O   0  0  0  0  0  0  0  0  0  0  0  0
  1  2  1  0
  2  3  1  0
  3  4  2  0
  4  5  1  0
  5  6  1  0
  6  7  1  0
  7  8  1  0
  8  9  1  0
  9 10  2  0
 10 11  1  0
 11 12  2  0
 12 13  1  0
 13 14  2  0
 14 15  1  0
 15 16  2  0
 15 17  1  0
  6  2  2  0
 14  9  1  0
M  END
>  <assay_description>  (70) 
Inhibition of OATP1B1 (unknown origin)

>  <molecule_pref_name>  (70) 
None

>  <canonical_smiles>  (70) 
Cc1ccsc1CNc1cnccc1C(=O)O

>  <pchembl_value>  (70) 
5.10

>  <standard_type>  (70) 
IC50

>  <standard_relation>  (70) 
=

>  <standard_value>  (70) 
8000.0

>  <standard_units>  (70) 
nM

>  <target_pref_name>  (70) 
Solute carrier organic anion transporter family member 1B1

>  <target_organism>  (70) 
Homo sapiens

$$$$
CHEMBL3819587
     RDKit          2D

 39 43  0  0  0  0  0  0  0  0999 V2000
   -0.4023   -1.5157    0.0000 C   0  0  0  0  0  0  0  0  0  0  0  0
   -0.6258   -0.0325    0.0000 O   0  0  0  0  0  0  0  0  0  0  0  0
   -2.0221    0.5156    0.0000 C   0  0  0  0  0  0  0  0  0  0  0  0
   -3.1949   -0.4197    0.0000 C   0  0  0  0  0  0  0  0  0  0  0  0
   -4.5912    0.1283    0.0000 C   0  0  0  0  0  0  0  0  0  0  0  0
   -5.7639   -0.8069    0.0000 C   0  0  0  0  0  0  0  0  0  0  0  0
   -7.1603   -0.2589    0.0000 C   0  0  0  0  0  0  0  0  0  0  0  0
   -7.3838    1.2244    0.0000 C   0  0  0  0  0  0  0  0  0  0  0  0
   -6.2111    2.1596    0.0000 O   0  0  0  0  0  0  0  0  0  0  0  0
   -8.7801    1.7724    0.0000 O   0  0  0  0  0  0  0  0  0  0  0  0
   -5.5404   -2.2901    0.0000 C   0  0  0  0  0  0  0  0  0  0  0  0
   -6.7131   -3.2254    0.0000 C   0  0  0  0  0  0  0  0  0  0  0  0
   -6.4896   -4.7086    0.0000 C   0  0  0  0  0  0  0  0  0  0  0  0
   -5.0933   -5.2566    0.0000 C   0  0  0  0  0  0  0  0  0  0  0  0
   -4.8697   -6.7399    0.0000 C   0  0  0  0  0  0  0  0  0  0  0  0
   -3.9205   -4.3214    0.0000 C   0  0  0  0  0  0  0  0  0  0  0  0
   -2.5242   -4.8694    0.0000 C   0  0  0  0  0  0  0  0  0  0  0  0
   -2.3006   -6.3527    0.0000 N   0  0  0  0  0  0  0  0  0  0  0  0
   -3.5400   -7.1976    0.0000 C   0  0  0  0  0  0  0  0  0  0  0  0
   -3.6521   -8.6934    0.0000 C   0  0  0  0  0  0  0  0  0  0  0  0
   -5.0484   -9.2415    0.0000 C   0  0  0  0  0  0  0  0  0  0  0  0
   -2.5525   -9.7137    0.0000 O   0  0  0  0  0  0  0  0  0  0  0  0
   -1.0693   -9.4901    0.0000 C   0  0  0  0  0  0  0  0  0  0  0  0
   -0.3193  -10.7892    0.0000 C   0  0  0  0  0  0  0  0  0  0  0  0
    1.1807  -10.7892    0.0000 C   0  0  0  0  0  0  0  0  0  0  0  0
    1.9307   -9.4901    0.0000 C   0  0  0  0  0  0  0  0  0  0  0  0
    1.1807   -8.1911    0.0000 C   0  0  0  0  0  0  0  0  0  0  0  0
   -0.3193   -8.1911    0.0000 C   0  0  0  0  0  0  0  0  0  0  0  0
   -0.8673   -6.7948    0.0000 S   0  0  0  0  0  0  0  0  0  0  0  0
    0.6160   -6.5712    0.0000 O   0  0  0  0  0  0  0  0  0  0  0  0
   -0.7552   -5.2990    0.0000 O   0  0  0  0  0  0  0  0  0  0  0  0
   -4.1441   -2.8382    0.0000 C   0  0  0  0  0  0  0  0  0  0  0  0
   -4.8148    1.6116    0.0000 C   0  0  0  0  0  0  0  0  0  0  0  0
   -3.6420    2.5468    0.0000 C   0  0  0  0  0  0  0  0  0  0  0  0
   -3.5523    4.0441    0.0000 N   0  0  0  0  0  0  0  0  0  0  0  0
   -2.1006    4.4215    0.0000 N   0  0  0  0  0  0  0  0  0  0  0  0
   -1.2930    3.1574    0.0000 N   0  0  0  0  0  0  0  0  0  0  0  0
    0.2043    3.0677    0.0000 C   0  0  0  0  0  0  0  0  0  0  0  0
   -2.2457    1.9988    0.0000 C   0  0  0  0  0  0  0  0  0  0  0  0
  1  2  1  0
  2  3  1  0
  3  4  2  0
  4  5  1  0
  5  6  1  0
  6  7  1  6
  7  8  1  0
  8  9  2  0
  8 10  1  0
  6 11  1  0
 11 12  2  0
 12 13  1  0
 13 14  2  0
 14 15  1  0
 14 16  1  0
 16 17  1  0
 17 18  1  0
 18 19  1  0
 19 20  1  0
 20 21  1  6
 20 22  1  0
 22 23  1  0
 23 24  2  0
 24 25  1  0
 25 26  2  0
 26 27  1  0
 27 28  2  0
 28 29  1  0
 29 30  2  0
 29 31  2  0
 16 32  2  0
  5 33  2  0
 33 34  1  0
 34 35  1  0
 35 36  2  0
 36 37  1  0
 37 38  1  0
 37 39  1  0
 39  3  1  0
 32 11  1  0
 39 34  2  0
 29 18  1  0
 28 23  1  0
M  END
>  <assay_description>  (71) 
Inhibition of OATP1B1 (unknown origin)

>  <molecule_pref_name>  (71) 
None

>  <canonical_smiles>  (71) 
COc1cc([C@@H](CC(=O)O)c2ccc(C)c(CN3C[C@@H](C)Oc4ccccc4S3(=O)=O)c2)cc2nnn(C)c12

>  <pchembl_value>  (71) 
5.60

>  <standard_type>  (71) 
IC50

>  <standard_relation>  (71) 
=

>  <standard_value>  (71) 
2500.0

>  <standard_units>  (71) 
nM

>  <target_pref_name>  (71) 
Solute carrier organic anion transporter family member 1B1

>  <target_organism>  (71) 
Homo sapiens

$$$$
CHEMBL4060134
     RDKit          2D

 36 41  0  0  0  0  0  0  0  0999 V2000
    6.5760  -13.9255    0.0000 C   0  0  0  0  0  0  0  0  0  0  0  0
    7.9463  -13.3154    0.0000 N   0  0  0  0  0  0  0  0  0  0  0  0
    9.2454  -14.0654    0.0000 C   0  0  0  0  0  0  0  0  0  0  0  0
   10.3601  -13.0617    0.0000 N   0  0  0  0  0  0  0  0  0  0  0  0
    9.7500  -11.6913    0.0000 C   0  0  0  0  0  0  0  0  0  0  0  0
   10.5000  -10.3923    0.0000 C   0  0  0  0  0  0  0  0  0  0  0  0
   12.0000  -10.3923    0.0000 O   0  0  0  0  0  0  0  0  0  0  0  0
    9.7500   -9.0933    0.0000 N   0  0  0  0  0  0  0  0  0  0  0  0
   10.5000   -7.7942    0.0000 C   0  0  0  0  0  0  0  0  0  0  0  0
    9.7500   -6.4952    0.0000 C   0  0  0  0  0  0  0  0  0  0  0  0
    8.2500   -6.4952    0.0000 N   0  0  0  0  0  0  0  0  0  0  0  0
    7.5000   -5.1962    0.0000 C   0  0  0  0  0  0  0  0  0  0  0  0
    8.2500   -3.8971    0.0000 O   0  0  0  0  0  0  0  0  0  0  0  0
    6.0000   -5.1962    0.0000 C   0  0  0  0  0  0  0  0  0  0  0  0
    5.2500   -3.8971    0.0000 C   0  0  0  0  0  0  0  0  0  0  0  0
    3.7500   -3.8971    0.0000 C   0  0  0  0  0  0  0  0  0  0  0  0
    3.0000   -5.1962    0.0000 C   0  0  0  0  0  0  0  0  0  0  0  0
    1.5000   -5.1962    0.0000 N   0  0  0  0  0  0  0  0  0  0  0  0
    0.7500   -3.8971    0.0000 C   0  0  0  0  0  0  0  0  0  0  0  0
    1.5000   -2.5981    0.0000 N   0  0  0  0  0  0  0  0  0  0  0  0
    0.7500   -1.2990    0.0000 C   0  0  0  0  0  0  0  0  0  0  0  0
    1.5000    0.0000    0.0000 C   0  0  0  0  0  0  0  0  0  0  0  0
    0.7500    1.2990    0.0000 C   0  0  0  0  0  0  0  0  0  0  0  0
   -0.7500    1.2990    0.0000 C   0  0  0  0  0  0  0  0  0  0  0  0
   -1.5000    0.0000    0.0000 C   0  0  0  0  0  0  0  0  0  0  0  0
   -0.7500   -1.2990    0.0000 C   0  0  0  0  0  0  0  0  0  0  0  0
   -1.5000   -2.5981    0.0000 N   0  0  0  0  0  0  0  0  0  0  0  0
   -2.9672   -2.9099    0.0000 N   0  0  0  0  0  0  0  0  0  0  0  0
   -3.1240   -4.4017    0.0000 N   0  0  0  0  0  0  0  0  0  0  0  0
   -1.7537   -5.0118    0.0000 N   0  0  0  0  0  0  0  0  0  0  0  0
   -0.7500   -3.8971    0.0000 C   0  0  0  0  0  0  0  0  0  0  0  0
    3.7500   -6.4952    0.0000 C   0  0  0  0  0  0  0  0  0  0  0  0
    5.2500   -6.4952    0.0000 C   0  0  0  0  0  0  0  0  0  0  0  0
    7.5000   -7.7942    0.0000 C   0  0  0  0  0  0  0  0  0  0  0  0
    8.2500   -9.0933    0.0000 C   0  0  0  0  0  0  0  0  0  0  0  0
    8.2582  -11.8481    0.0000 C   0  0  0  0  0  0  0  0  0  0  0  0
  1  2  1  0
  2  3  1  0
  3  4  2  0
  4  5  1  0
  5  6  1  0
  6  7  2  0
  6  8  1  0
  8  9  1  0
  9 10  1  0
 10 11  1  0
 11 12  1  0
 12 13  2  0
 12 14  1  0
 14 15  2  0
 15 16  1  0
 16 17  2  0
 17 18  1  0
 18 19  1  0
 19 20  2  0
 20 21  1  0
 21 22  2  0
 22 23  1  0
 23 24  2  0
 24 25  1  0
 25 26  2  0
 26 27  1  0
 27 28  1  0
 28 29  2  0
 29 30  1  0
 30 31  2  0
 17 32  1  0
 32 33  2  0
 11 34  1  0
 34 35  1  0
  5 36  2  0
 36  2  1  0
 35  8  1  0
 33 14  1  0
 31 19  1  0
 26 21  1  0
 31 27  1  0
M  END
>  <assay_description>  (72) 
Inhibition of human OATP1B1

>  <molecule_pref_name>  (72) 
None

>  <canonical_smiles>  (72) 
Cn1cnc(C(=O)N2CCN(C(=O)c3ccc(Nc4nc5ccccc5n5nnnc45)cc3)CC2)c1

>  <pchembl_value>  (72) 
4.40

>  <standard_type>  (72) 
IC50

>  <standard_relation>  (72) 
=

>  <standard_value>  (72) 
39810.72

>  <standard_units>  (72) 
nM

>  <target_pref_name>  (72) 
Solute carrier organic anion transporter family member 1B1

>  <target_organism>  (72) 
Homo sapiens

$$$$
CHEMBL1829174
     RDKit          2D

 37 40  0  0  0  0  0  0  0  0999 V2000
    3.0000  -10.3923    0.0000 C   0  0  0  0  0  0  0  0  0  0  0  0
    1.5000  -10.3923    0.0000 C   0  0  0  0  0  0  0  0  0  0  0  0
    0.7500  -11.6913    0.0000 C   0  0  0  0  0  0  0  0  0  0  0  0
   -0.7500  -11.6913    0.0000 C   0  0  0  0  0  0  0  0  0  0  0  0
   -1.5000  -12.9904    0.0000 O   0  0  0  0  0  0  0  0  0  0  0  0
   -3.0000  -12.9904    0.0000 C   0  0  0  0  0  0  0  0  0  0  0  0
   -3.7500  -14.2894    0.0000 C   0  0  0  0  0  0  0  0  0  0  0  0
   -5.2500  -14.2894    0.0000 C   0  0  0  0  0  0  0  0  0  0  0  0
   -6.0000  -15.5885    0.0000 S   0  0  0  0  0  0  0  0  0  0  0  0
   -6.7500  -16.8875    0.0000 C   0  0  0  0  0  0  0  0  0  0  0  0
   -4.7010  -16.3385    0.0000 O   0  0  0  0  0  0  0  0  0  0  0  0
   -7.2990  -14.8385    0.0000 O   0  0  0  0  0  0  0  0  0  0  0  0
   -1.5000  -10.3923    0.0000 C   0  0  0  0  0  0  0  0  0  0  0  0
   -0.7500   -9.0933    0.0000 C   0  0  0  0  0  0  0  0  0  0  0  0
   -1.5000   -7.7942    0.0000 C   0  0  0  0  0  0  0  0  0  0  0  0
    0.7500   -9.0933    0.0000 C   0  0  0  0  0  0  0  0  0  0  0  0
    1.5000   -7.7942    0.0000 C   0  0  0  0  0  0  0  0  0  0  0  0
    3.0000   -7.7942    0.0000 C   0  0  0  0  0  0  0  0  0  0  0  0
    3.7500   -6.4952    0.0000 C   0  0  0  0  0  0  0  0  0  0  0  0
    3.0000   -5.1962    0.0000 C   0  0  0  0  0  0  0  0  0  0  0  0
    1.5000   -5.1962    0.0000 C   0  0  0  0  0  0  0  0  0  0  0  0
    0.7500   -3.8971    0.0000 C   0  0  0  0  0  0  0  0  0  0  0  0
    1.5000   -2.5981    0.0000 O   0  0  0  0  0  0  0  0  0  0  0  0
    0.7500   -1.2990    0.0000 C   0  0  0  0  0  0  0  0  0  0  0  0
    1.5000    0.0000    0.0000 C   0  0  0  0  0  0  0  0  0  0  0  0
    0.7500    1.2990    0.0000 C   0  0  0  0  0  0  0  0  0  0  0  0
   -0.7500    1.2990    0.0000 C   0  0  0  0  0  0  0  0  0  0  0  0
   -1.5000    0.0000    0.0000 C   0  0  0  0  0  0  0  0  0  0  0  0
   -0.7500   -1.2990    0.0000 C   0  0  0  0  0  0  0  0  0  0  0  0
   -2.9672    0.3119    0.0000 O   0  0  0  0  0  0  0  0  0  0  0  0
   -3.1240    1.8037    0.0000 C   0  0  0  0  0  0  0  0  0  0  0  0
   -1.7537    2.4138    0.0000 C   0  0  0  0  0  0  0  0  0  0  0  0
   -1.4418    3.8810    0.0000 C   0  0  0  0  0  0  0  0  0  0  0  0
   -2.5565    4.8847    0.0000 C   0  0  0  0  0  0  0  0  0  0  0  0
   -3.9831    4.4211    0.0000 O   0  0  0  0  0  0  0  0  0  0  0  0
   -2.2447    6.3519    0.0000 O   0  0  0  0  0  0  0  0  0  0  0  0
    0.7500   -6.4952    0.0000 C   0  0  0  0  0  0  0  0  0  0  0  0
  1  2  1  0
  2  3  2  0
  3  4  1  0
  4  5  1  0
  5  6  1  0
  6  7  1  0
  7  8  1  0
  8  9  1  0
  9 10  1  0
  9 11  2  0
  9 12  2  0
  4 13  2  0
 13 14  1  0
 14 15  1  0
 14 16  2  0
 16 17  1  0
 17 18  2  0
 18 19  1  0
 19 20  2  0
 20 21  1  0
 21 22  1  0
 22 23  1  0
 23 24  1  0
 24 25  2  0
 25 26  1  0
 26 27  2  0
 27 28  1  0
 28 29  2  0
 28 30  1  0
 30 31  1  0
 31 32  1  0
 32 33  1  1
 33 34  1  0
 34 35  2  0
 34 36  1  0
 21 37  2  0
 16  2  1  0
 37 17  1  0
 29 24  1  0
 32 27  1  0
M  END
>  <assay_description>  (73) 
Inhibition of human OATP1BA

>  <molecule_pref_name>  (73) 
FASIGLIFAM

>  <canonical_smiles>  (73) 
Cc1cc(OCCCS(C)(=O)=O)cc(C)c1-c1cccc(COc2ccc3c(c2)OC[C@H]3CC(=O)O)c1

>  <pchembl_value>  (73) 
5.64

>  <standard_type>  (73) 
IC50

>  <standard_relation>  (73) 
=

>  <standard_value>  (73) 
2280.0

>  <standard_units>  (73) 
nM

>  <target_pref_name>  (73) 
Solute carrier organic anion transporter family member 1B1

>  <target_organism>  (73) 
Homo sapiens

$$$$
CHEMBL4448579
     RDKit          2D

 33 36  0  0  0  0  0  0  0  0999 V2000
    6.0000   -2.5981    0.0000 C   0  0  0  0  0  0  0  0  0  0  0  0
    5.2500   -1.2990    0.0000 O   0  0  0  0  0  0  0  0  0  0  0  0
    3.7500   -1.2990    0.0000 C   0  0  0  0  0  0  0  0  0  0  0  0
    3.0000    0.0000    0.0000 C   0  0  0  0  0  0  0  0  0  0  0  0
    1.5000    0.0000    0.0000 N   0  0  0  0  0  0  0  0  0  0  0  0
    0.7500   -1.2990    0.0000 C   0  0  0  0  0  0  0  0  0  0  0  0
   -0.7500   -1.2990    0.0000 C   0  0  0  0  0  0  0  0  0  0  0  0
   -1.5000    0.0000    0.0000 N   0  0  0  0  0  0  0  0  0  0  0  0
   -3.0000    0.0000    0.0000 C   0  0  0  0  0  0  0  0  0  0  0  0
   -3.7500    1.2990    0.0000 C   0  0  0  0  0  0  0  0  0  0  0  0
   -5.2500    1.2990    0.0000 C   0  0  0  0  0  0  0  0  0  0  0  0
   -6.0000    0.0000    0.0000 C   0  0  0  0  0  0  0  0  0  0  0  0
   -7.5000    0.0000    0.0000 O   0  0  0  0  0  0  0  0  0  0  0  0
   -8.2500    1.2990    0.0000 C   0  0  0  0  0  0  0  0  0  0  0  0
   -9.7500    1.2990    0.0000 C   0  0  0  0  0  0  0  0  0  0  0  0
  -10.5000    2.5981    0.0000 C   0  0  0  0  0  0  0  0  0  0  0  0
  -12.0000    2.5981    0.0000 C   0  0  0  0  0  0  0  0  0  0  0  0
  -12.7500    1.2990    0.0000 C   0  0  0  0  0  0  0  0  0  0  0  0
  -12.0000    0.0000    0.0000 C   0  0  0  0  0  0  0  0  0  0  0  0
  -10.5000    0.0000    0.0000 C   0  0  0  0  0  0  0  0  0  0  0  0
   -5.2500   -1.2990    0.0000 C   0  0  0  0  0  0  0  0  0  0  0  0
   -6.0000   -2.5981    0.0000 C   0  0  0  0  0  0  0  0  0  0  0  0
   -7.5000   -2.5981    0.0000 O   0  0  0  0  0  0  0  0  0  0  0  0
   -5.2500   -3.8971    0.0000 N   0  0  0  0  0  0  0  0  0  0  0  0
   -6.0000   -5.1962    0.0000 C   0  0  0  0  0  0  0  0  0  0  0  0
   -7.5000   -5.1962    0.0000 C   0  0  0  0  0  0  0  0  0  0  0  0
   -8.2500   -6.4952    0.0000 C   0  0  0  0  0  0  0  0  0  0  0  0
   -7.5000   -7.7942    0.0000 N   0  0  0  0  0  0  0  0  0  0  0  0
   -6.0000   -7.7942    0.0000 N   0  0  0  0  0  0  0  0  0  0  0  0
   -5.2500   -6.4952    0.0000 C   0  0  0  0  0  0  0  0  0  0  0  0
   -3.7500   -1.2990    0.0000 C   0  0  0  0  0  0  0  0  0  0  0  0
   -0.7500    1.2990    0.0000 C   0  0  0  0  0  0  0  0  0  0  0  0
    0.7500    1.2990    0.0000 C   0  0  0  0  0  0  0  0  0  0  0  0
  1  2  1  0
  2  3  1  0
  3  4  1  0
  4  5  1  0
  5  6  1  0
  6  7  1  0
  7  8  1  0
  8  9  1  0
  9 10  2  0
 10 11  1  0
 11 12  2  0
 12 13  1  0
 13 14  1  0
 14 15  1  0
 15 16  2  0
 16 17  1  0
 17 18  2  0
 18 19  1  0
 19 20  2  0
 12 21  1  0
 21 22  1  0
 22 23  2  0
 22 24  1  0
 24 25  1  0
 25 26  2  0
 26 27  1  0
 27 28  2  0
 28 29  1  0
 29 30  2  0
 21 31  2  0
  8 32  1  0
 32 33  1  0
 33  5  1  0
 31  9  1  0
 20 15  1  0
 30 25  1  0
M  END
>  <assay_description>  (74) 
Inhibition of OATP1B1 (unknown origin)

>  <molecule_pref_name>  (74) 
None

>  <canonical_smiles>  (74) 
COCCN1CCN(c2ccc(OCc3ccccc3)c(C(=O)Nc3ccnnc3)c2)CC1

>  <pchembl_value>  (74) 
4.40

>  <standard_type>  (74) 
IC50

>  <standard_relation>  (74) 
=

>  <standard_value>  (74) 
39810.72

>  <standard_units>  (74) 
nM

>  <target_pref_name>  (74) 
Solute carrier organic anion transporter family member 1B1

>  <target_organism>  (74) 
Homo sapiens

$$$$
CHEMBL4457647
     RDKit          2D

 29 32  0  0  0  0  0  0  0  0999 V2000
   -0.7500   -3.8971    0.0000 O   0  0  0  0  0  0  0  0  0  0  0  0
    0.7500   -3.8971    0.0000 C   0  0  0  0  0  0  0  0  0  0  0  0
    1.5000   -2.5981    0.0000 N   0  0  0  0  0  0  0  0  0  0  0  0
    0.7500   -1.2990    0.0000 C   0  0  0  0  0  0  0  0  0  0  0  0
    1.5000    0.0000    0.0000 C   0  0  0  0  0  0  0  0  0  0  0  0
    0.7500    1.2990    0.0000 C   0  0  0  0  0  0  0  0  0  0  0  0
   -0.7500    1.2990    0.0000 N   0  0  0  0  0  0  0  0  0  0  0  0
   -1.5000    0.0000    0.0000 N   0  0  0  0  0  0  0  0  0  0  0  0
   -0.7500   -1.2990    0.0000 C   0  0  0  0  0  0  0  0  0  0  0  0
    1.5000   -5.1962    0.0000 C   0  0  0  0  0  0  0  0  0  0  0  0
    0.7500   -6.4952    0.0000 C   0  0  0  0  0  0  0  0  0  0  0  0
    1.5000   -7.7942    0.0000 C   0  0  0  0  0  0  0  0  0  0  0  0
    0.7500   -9.0933    0.0000 N   0  0  0  0  0  0  0  0  0  0  0  0
   -0.7500   -9.0933    0.0000 C   0  0  0  0  0  0  0  0  0  0  0  0
   -1.5000  -10.3923    0.0000 C   0  0  0  0  0  0  0  0  0  0  0  0
   -0.7500  -11.6913    0.0000 O   0  0  0  0  0  0  0  0  0  0  0  0
    0.7500  -11.6913    0.0000 C   0  0  0  0  0  0  0  0  0  0  0  0
    1.5000  -10.3923    0.0000 C   0  0  0  0  0  0  0  0  0  0  0  0
    3.0000   -7.7942    0.0000 C   0  0  0  0  0  0  0  0  0  0  0  0
    3.7500   -6.4952    0.0000 C   0  0  0  0  0  0  0  0  0  0  0  0
    3.0000   -5.1962    0.0000 C   0  0  0  0  0  0  0  0  0  0  0  0
    3.7500   -3.8971    0.0000 O   0  0  0  0  0  0  0  0  0  0  0  0
    5.2500   -3.8971    0.0000 C   0  0  0  0  0  0  0  0  0  0  0  0
    6.0000   -2.5981    0.0000 C   0  0  0  0  0  0  0  0  0  0  0  0
    7.5000   -2.5981    0.0000 C   0  0  0  0  0  0  0  0  0  0  0  0
    8.2500   -1.2990    0.0000 C   0  0  0  0  0  0  0  0  0  0  0  0
    7.5000   -0.0000    0.0000 C   0  0  0  0  0  0  0  0  0  0  0  0
    6.0000   -0.0000    0.0000 C   0  0  0  0  0  0  0  0  0  0  0  0
    5.2500   -1.2990    0.0000 C   0  0  0  0  0  0  0  0  0  0  0  0
  1  2  2  0
  2  3  1  0
  3  4  1  0
  4  5  2  0
  5  6  1  0
  6  7  2  0
  7  8  1  0
  8  9  2  0
  2 10  1  0
 10 11  2  0
 11 12  1  0
 12 13  1  0
 13 14  1  0
 14 15  1  0
 15 16  1  0
 16 17  1  0
 17 18  1  0
 12 19  2  0
 19 20  1  0
 20 21  2  0
 21 22  1  0
 22 23  1  0
 23 24  1  0
 24 25  2  0
 25 26  1  0
 26 27  2  0
 27 28  1  0
 28 29  2  0
  9  4  1  0
 21 10  1  0
 29 24  1  0
 18 13  1  0
M  END
>  <assay_description>  (75) 
Inhibition of OATP1B1 (unknown origin)

>  <molecule_pref_name>  (75) 
None

>  <canonical_smiles>  (75) 
O=C(Nc1ccnnc1)c1cc(N2CCOCC2)ccc1OCc1ccccc1

>  <pchembl_value>  (75) 
4.80

>  <standard_type>  (75) 
IC50

>  <standard_relation>  (75) 
=

>  <standard_value>  (75) 
15848.93

>  <standard_units>  (75) 
nM

>  <target_pref_name>  (75) 
Solute carrier organic anion transporter family member 1B1

>  <target_organism>  (75) 
Homo sapiens

$$$$
CHEMBL4563459
     RDKit          2D

 37 40  0  0  0  0  0  0  0  0999 V2000
    4.6740   -4.8322    0.0000 C   0  0  0  0  0  0  0  0  0  0  0  0
    3.3037   -4.2221    0.0000 C   0  0  0  0  0  0  0  0  0  0  0  0
    2.9918   -2.7549    0.0000 C   0  0  0  0  0  0  0  0  0  0  0  0
    1.5000   -2.5981    0.0000 C   0  0  0  0  0  0  0  0  0  0  0  0
    0.7500   -1.2990    0.0000 C   0  0  0  0  0  0  0  0  0  0  0  0
    1.5000    0.0000    0.0000 C   0  0  0  0  0  0  0  0  0  0  0  0
    0.7500    1.2990    0.0000 C   0  0  0  0  0  0  0  0  0  0  0  0
   -0.7500    1.2990    0.0000 C   0  0  0  0  0  0  0  0  0  0  0  0
   -1.5000    2.5981    0.0000 C   0  0  0  0  0  0  0  0  0  0  0  0
   -3.0000    2.5981    0.0000 O   0  0  0  0  0  0  0  0  0  0  0  0
   -0.7500    3.8971    0.0000 C   0  0  0  0  0  0  0  0  0  0  0  0
    0.7500    3.8971    0.0000 C   0  0  0  0  0  0  0  0  0  0  0  0
    1.5000    5.1962    0.0000 C   0  0  0  0  0  0  0  0  0  0  0  0
    0.7500    6.4952    0.0000 C   0  0  0  0  0  0  0  0  0  0  0  0
   -0.7500    6.4952    0.0000 C   0  0  0  0  0  0  0  0  0  0  0  0
   -1.5000    5.1962    0.0000 C   0  0  0  0  0  0  0  0  0  0  0  0
   -3.0000    5.1962    0.0000 C   0  0  0  0  0  0  0  0  0  0  0  0
   -3.7500    3.8971    0.0000 O   0  0  0  0  0  0  0  0  0  0  0  0
   -3.7500    6.4952    0.0000 N   0  0  0  0  0  0  0  0  0  0  0  0
   -5.2500    6.4952    0.0000 C   0  0  0  0  0  0  0  0  0  0  0  0
   -6.1317    5.2817    0.0000 C   0  0  0  0  0  0  0  0  0  0  0  0
   -7.5583    5.7452    0.0000 N   0  0  0  0  0  0  0  0  0  0  0  0
   -7.5583    7.2452    0.0000 N   0  0  0  0  0  0  0  0  0  0  0  0
   -8.7718    8.1269    0.0000 C   0  0  0  0  0  0  0  0  0  0  0  0
   -6.1317    7.7087    0.0000 C   0  0  0  0  0  0  0  0  0  0  0  0
   -5.6682    9.1353    0.0000 C   0  0  0  0  0  0  0  0  0  0  0  0
   -6.6718   10.2500    0.0000 O   0  0  0  0  0  0  0  0  0  0  0  0
   -4.2009    9.4472    0.0000 N   0  0  0  0  0  0  0  0  0  0  0  0
   -3.7374   10.8738    0.0000 O   0  0  0  0  0  0  0  0  0  0  0  0
   -2.2702   11.1856    0.0000 C   0  0  0  0  0  0  0  0  0  0  0  0
   -2.5821   12.6528    0.0000 C   0  0  0  0  0  0  0  0  0  0  0  0
   -1.9583    9.7184    0.0000 C   0  0  0  0  0  0  0  0  0  0  0  0
   -0.8030   11.4975    0.0000 C   0  0  0  0  0  0  0  0  0  0  0  0
   -1.5000    0.0000    0.0000 C   0  0  0  0  0  0  0  0  0  0  0  0
   -0.7500   -1.2990    0.0000 C   0  0  0  0  0  0  0  0  0  0  0  0
    0.8899   -3.9684    0.0000 N   0  0  0  0  0  0  0  0  0  0  0  0
    2.0046   -4.9721    0.0000 N   0  0  0  0  0  0  0  0  0  0  0  0
  1  2  1  0
  2  3  1  0
  3  4  2  0
  4  5  1  0
  5  6  2  0
  6  7  1  0
  7  8  2  0
  8  9  1  0
  9 10  2  0
 11  9  1  1
 11 12  1  0
 12 13  1  0
 13 14  1  0
 14 15  1  0
 15 16  1  0
 16 17  1  6
 17 18  2  0
 17 19  1  0
 19 20  1  0
 20 21  1  0
 21 22  2  0
 22 23  1  0
 23 24  1  0
 23 25  1  0
 25 26  1  0
 26 27  2  0
 26 28  1  0
 28 29  1  0
 29 30  1  0
 30 31  1  0
 30 32  1  0
 30 33  1  0
  8 34  1  0
 34 35  2  0
  4 36  1  0
 36 37  1  0
 37  2  2  0
 35  5  1  0
 16 11  1  0
 25 20  2  0
M  END
>  <assay_description>  (76) 
Substrate activity at recombinant human OATP1B1 expressed in HEK293 cells assessed as reduction in pivastatin uptake

>  <molecule_pref_name>  (76) 
None

>  <canonical_smiles>  (76) 
Cc1cc(-c2ccc(C(=O)[C@@H]3CCCC[C@H]3C(=O)Nc3cnn(C)c3C(=O)NOC(C)(C)C)cc2)[nH]n1

>  <pchembl_value>  (76) 
5.85

>  <standard_type>  (76) 
IC50

>  <standard_relation>  (76) 
=

>  <standard_value>  (76) 
1400.0

>  <standard_units>  (76) 
nM

>  <target_pref_name>  (76) 
Solute carrier organic anion transporter family member 1B1

>  <target_organism>  (76) 
Homo sapiens

$$$$
CHEMBL4474619
     RDKit          2D

 33 36  0  0  0  0  0  0  0  0999 V2000
    4.6740   -4.8322    0.0000 C   0  0  0  0  0  0  0  0  0  0  0  0
    3.3037   -4.2221    0.0000 C   0  0  0  0  0  0  0  0  0  0  0  0
    2.9918   -2.7549    0.0000 C   0  0  0  0  0  0  0  0  0  0  0  0
    1.5000   -2.5981    0.0000 C   0  0  0  0  0  0  0  0  0  0  0  0
    0.7500   -1.2990    0.0000 C   0  0  0  0  0  0  0  0  0  0  0  0
    1.5000    0.0000    0.0000 C   0  0  0  0  0  0  0  0  0  0  0  0
    0.7500    1.2990    0.0000 C   0  0  0  0  0  0  0  0  0  0  0  0
   -0.7500    1.2990    0.0000 C   0  0  0  0  0  0  0  0  0  0  0  0
   -1.5000    2.5981    0.0000 C   0  0  0  0  0  0  0  0  0  0  0  0
   -3.0000    2.5981    0.0000 O   0  0  0  0  0  0  0  0  0  0  0  0
   -0.7500    3.8971    0.0000 C   0  0  0  0  0  0  0  0  0  0  0  0
    0.7500    3.8971    0.0000 C   0  0  0  0  0  0  0  0  0  0  0  0
    1.5000    5.1962    0.0000 C   0  0  0  0  0  0  0  0  0  0  0  0
    0.7500    6.4952    0.0000 C   0  0  0  0  0  0  0  0  0  0  0  0
   -0.7500    6.4952    0.0000 C   0  0  0  0  0  0  0  0  0  0  0  0
   -1.5000    5.1962    0.0000 C   0  0  0  0  0  0  0  0  0  0  0  0
   -3.0000    5.1962    0.0000 C   0  0  0  0  0  0  0  0  0  0  0  0
   -3.7500    3.8971    0.0000 O   0  0  0  0  0  0  0  0  0  0  0  0
   -3.7500    6.4952    0.0000 N   0  0  0  0  0  0  0  0  0  0  0  0
   -5.2500    6.4952    0.0000 C   0  0  0  0  0  0  0  0  0  0  0  0
   -6.1317    5.2817    0.0000 C   0  0  0  0  0  0  0  0  0  0  0  0
   -7.5583    5.7452    0.0000 N   0  0  0  0  0  0  0  0  0  0  0  0
   -7.5583    7.2452    0.0000 N   0  0  0  0  0  0  0  0  0  0  0  0
   -8.7718    8.1269    0.0000 C   0  0  0  0  0  0  0  0  0  0  0  0
   -6.1317    7.7087    0.0000 C   0  0  0  0  0  0  0  0  0  0  0  0
   -5.6682    9.1353    0.0000 S   0  0  0  0  0  0  0  0  0  0  0  0
   -5.2046   10.5619    0.0000 N   0  0  0  0  0  0  0  0  0  0  0  0
   -4.2416    8.6718    0.0000 O   0  0  0  0  0  0  0  0  0  0  0  0
   -7.0947    9.5988    0.0000 O   0  0  0  0  0  0  0  0  0  0  0  0
   -1.5000    0.0000    0.0000 C   0  0  0  0  0  0  0  0  0  0  0  0
   -0.7500   -1.2990    0.0000 C   0  0  0  0  0  0  0  0  0  0  0  0
    0.8899   -3.9684    0.0000 N   0  0  0  0  0  0  0  0  0  0  0  0
    2.0046   -4.9721    0.0000 N   0  0  0  0  0  0  0  0  0  0  0  0
  1  2  1  0
  2  3  2  0
  3  4  1  0
  4  5  1  0
  5  6  2  0
  6  7  1  0
  7  8  2  0
  8  9  1  0
  9 10  2  0
 11  9  1  1
 11 12  1  0
 12 13  1  0
 13 14  1  0
 14 15  1  0
 15 16  1  0
 16 17  1  6
 17 18  2  0
 17 19  1  0
 19 20  1  0
 20 21  1  0
 21 22  2  0
 22 23  1  0
 23 24  1  0
 23 25  1  0
 25 26  1  0
 26 27  1  0
 26 28  2  0
 26 29  2  0
  8 30  1  0
 30 31  2  0
  4 32  2  0
 32 33  1  0
 33  2  1  0
 31  5  1  0
 16 11  1  0
 25 20  2  0
M  END
>  <assay_description>  (77) 
Substrate activity at recombinant human OATP1B1 expressed in HEK293 cells assessed as reduction in pivastatin uptake

>  <molecule_pref_name>  (77) 
None

>  <canonical_smiles>  (77) 
Cc1cc(-c2ccc(C(=O)[C@@H]3CCCC[C@H]3C(=O)Nc3cnn(C)c3S(N)(=O)=O)cc2)n[nH]1

>  <pchembl_value>  (77) 
5.60

>  <standard_type>  (77) 
IC50

>  <standard_relation>  (77) 
=

>  <standard_value>  (77) 
2500.0

>  <standard_units>  (77) 
nM

>  <target_pref_name>  (77) 
Solute carrier organic anion transporter family member 1B1

>  <target_organism>  (77) 
Homo sapiens

$$$$
CHEMBL4542281
     RDKit          2D

 33 37  0  0  0  0  0  0  0  0999 V2000
    7.1514  -16.5653    0.0000 C   0  0  0  0  0  0  0  0  0  0  0  0
    6.0367  -15.5616    0.0000 C   0  0  0  0  0  0  0  0  0  0  0  0
    6.1935  -14.0698    0.0000 C   0  0  0  0  0  0  0  0  0  0  0  0
    4.8232  -13.4597    0.0000 C   0  0  0  0  0  0  0  0  0  0  0  0
    4.5113  -11.9925    0.0000 C   0  0  0  0  0  0  0  0  0  0  0  0
    5.6260  -10.9888    0.0000 C   0  0  0  0  0  0  0  0  0  0  0  0
    5.3142   -9.5216    0.0000 C   0  0  0  0  0  0  0  0  0  0  0  0
    3.8876   -9.0580    0.0000 C   0  0  0  0  0  0  0  0  0  0  0  0
    3.5757   -7.5908    0.0000 C   0  0  0  0  0  0  0  0  0  0  0  0
    2.1491   -7.1273    0.0000 O   0  0  0  0  0  0  0  0  0  0  0  0
    4.6904   -6.5871    0.0000 C   0  0  0  0  0  0  0  0  0  0  0  0
    6.1170   -7.0506    0.0000 C   0  0  0  0  0  0  0  0  0  0  0  0
    7.2317   -6.0469    0.0000 C   0  0  0  0  0  0  0  0  0  0  0  0
    6.9199   -4.5797    0.0000 C   0  0  0  0  0  0  0  0  0  0  0  0
    5.4933   -4.1162    0.0000 C   0  0  0  0  0  0  0  0  0  0  0  0
    4.3786   -5.1199    0.0000 C   0  0  0  0  0  0  0  0  0  0  0  0
    2.9520   -4.6564    0.0000 C   0  0  0  0  0  0  0  0  0  0  0  0
    1.8373   -5.6601    0.0000 O   0  0  0  0  0  0  0  0  0  0  0  0
    2.6401   -3.1891    0.0000 N   0  0  0  0  0  0  0  0  0  0  0  0
    1.2135   -2.7256    0.0000 C   0  0  0  0  0  0  0  0  0  0  0  0
   -0.0000   -3.6073    0.0000 C   0  0  0  0  0  0  0  0  0  0  0  0
   -1.2135   -2.7256    0.0000 N   0  0  0  0  0  0  0  0  0  0  0  0
   -0.7500   -1.2990    0.0000 N   0  0  0  0  0  0  0  0  0  0  0  0
    0.7500   -1.2990    0.0000 C   0  0  0  0  0  0  0  0  0  0  0  0
    1.5000    0.0000    0.0000 C   0  0  0  0  0  0  0  0  0  0  0  0
    3.0000    0.0000    0.0000 O   0  0  0  0  0  0  0  0  0  0  0  0
    0.7500    1.2990    0.0000 N   0  0  0  0  0  0  0  0  0  0  0  0
   -0.7500    1.2990    0.0000 C   0  0  0  0  0  0  0  0  0  0  0  0
   -1.5000    0.0000    0.0000 C   0  0  0  0  0  0  0  0  0  0  0  0
    2.7729  -10.0617    0.0000 C   0  0  0  0  0  0  0  0  0  0  0  0
    3.0847  -11.5290    0.0000 C   0  0  0  0  0  0  0  0  0  0  0  0
    3.8195  -14.5744    0.0000 N   0  0  0  0  0  0  0  0  0  0  0  0
    4.5695  -15.8735    0.0000 N   0  0  0  0  0  0  0  0  0  0  0  0
  1  2  1  0
  2  3  2  0
  3  4  1  0
  4  5  1  0
  5  6  2  0
  6  7  1  0
  7  8  2  0
  8  9  1  0
  9 10  2  0
 11  9  1  1
 11 12  1  0
 12 13  1  0
 13 14  1  0
 14 15  1  0
 15 16  1  0
 16 17  1  6
 17 18  2  0
 17 19  1  0
 19 20  1  0
 20 21  1  0
 21 22  2  0
 22 23  1  0
 23 24  1  0
 24 25  1  0
 25 26  2  0
 25 27  1  0
 27 28  1  0
 28 29  1  0
  8 30  1  0
 30 31  2  0
  4 32  2  0
 32 33  1  0
 33  2  1  0
 31  5  1  0
 16 11  1  0
 24 20  2  0
 29 23  1  0
M  END
>  <assay_description>  (78) 
Substrate activity at recombinant human OATP1B1 expressed in HEK293 cells assessed as reduction in pivastatin uptake

>  <molecule_pref_name>  (78) 
None

>  <canonical_smiles>  (78) 
Cc1cc(-c2ccc(C(=O)[C@@H]3CCCC[C@H]3C(=O)Nc3cnn4c3C(=O)NCC4)cc2)n[nH]1

>  <pchembl_value>  (78) 
5.64

>  <standard_type>  (78) 
IC50

>  <standard_relation>  (78) 
=

>  <standard_value>  (78) 
2300.0

>  <standard_units>  (78) 
nM

>  <target_pref_name>  (78) 
Solute carrier organic anion transporter family member 1B1

>  <target_organism>  (78) 
Homo sapiens

$$$$
CHEMBL4457557
     RDKit          2D

 27 29  0  0  0  0  0  0  0  0999 V2000
    3.7500   -1.2990    0.0000 N   0  0  0  0  0  0  0  0  0  0  0  0
    3.0000    0.0000    0.0000 C   0  0  0  0  0  0  0  0  0  0  0  0
    3.7500    1.2990    0.0000 O   0  0  0  0  0  0  0  0  0  0  0  0
    1.5000    0.0000    0.0000 C   0  0  0  0  0  0  0  0  0  0  0  0
    0.7500   -1.2990    0.0000 C   0  0  0  0  0  0  0  0  0  0  0  0
   -0.7500   -1.2990    0.0000 C   0  0  0  0  0  0  0  0  0  0  0  0
   -1.5000    0.0000    0.0000 C   0  0  0  0  0  0  0  0  0  0  0  0
   -3.0000    0.0000    0.0000 C   0  0  0  0  0  0  0  0  0  0  0  0
   -3.7500    1.2990    0.0000 C   0  0  0  0  0  0  0  0  0  0  0  0
   -3.0000    2.5981    0.0000 C   0  0  0  0  0  0  0  0  0  0  0  0
   -3.7500    3.8971    0.0000 C   0  0  0  0  0  0  0  0  0  0  0  0
   -5.2500    3.8971    0.0000 C   0  0  0  0  0  0  0  0  0  0  0  0
   -6.0000    2.5981    0.0000 C   0  0  0  0  0  0  0  0  0  0  0  0
   -5.2500    1.2990    0.0000 C   0  0  0  0  0  0  0  0  0  0  0  0
   -0.7500    1.2990    0.0000 C   0  0  0  0  0  0  0  0  0  0  0  0
    0.7500    1.2990    0.0000 C   0  0  0  0  0  0  0  0  0  0  0  0
    1.5000    2.5981    0.0000 C   0  0  0  0  0  0  0  0  0  0  0  0
    3.0000    2.5981    0.0000 C   0  0  0  0  0  0  0  0  0  0  0  0
    3.7500    3.8971    0.0000 C   0  0  0  0  0  0  0  0  0  0  0  0
    3.0000    5.1962    0.0000 C   0  0  0  0  0  0  0  0  0  0  0  0
    1.5000    5.1962    0.0000 C   0  0  0  0  0  0  0  0  0  0  0  0
    0.7500    6.4952    0.0000 C   0  0  0  0  0  0  0  0  0  0  0  0
    1.5000    7.7942    0.0000 C   0  0  0  0  0  0  0  0  0  0  0  0
    0.7500    9.0933    0.0000 C   0  0  0  0  0  0  0  0  0  0  0  0
   -0.7500    9.0933    0.0000 O   0  0  0  0  0  0  0  0  0  0  0  0
    1.5000   10.3923    0.0000 O   0  0  0  0  0  0  0  0  0  0  0  0
    0.7500    3.8971    0.0000 C   0  0  0  0  0  0  0  0  0  0  0  0
  1  2  1  0
  2  3  2  0
  2  4  1  0
  4  5  2  0
  5  6  1  0
  6  7  2  0
  7  8  1  0
  8  9  1  0
  9 10  2  0
 10 11  1  0
 11 12  2  0
 12 13  1  0
 13 14  2  0
  7 15  1  0
 15 16  2  0
 16 17  1  0
 17 18  2  0
 18 19  1  0
 19 20  2  0
 20 21  1  0
 21 22  1  0
 22 23  1  0
 23 24  1  0
 24 25  2  0
 24 26  1  0
 21 27  2  0
 16  4  1  0
 27 17  1  0
 14  9  1  0
M  END
>  <assay_description>  (79) 
Inhibition of human OATP1B1 expressed in HEK293 cells assessed as reduction in pivastatin uptake

>  <molecule_pref_name>  (79) 
None

>  <canonical_smiles>  (79) 
NC(=O)c1ccc(Cc2ccccc2)cc1-c1cccc(CCC(=O)O)c1

>  <pchembl_value>  (79) 
5.70

>  <standard_type>  (79) 
IC50

>  <standard_relation>  (79) 
=

>  <standard_value>  (79) 
2000.0

>  <standard_units>  (79) 
nM

>  <target_pref_name>  (79) 
Solute carrier organic anion transporter family member 1B1

>  <target_organism>  (79) 
Homo sapiens

$$$$
