CHEMBL3099716
     RDKit          2D

 33 37  0  0  0  0  0  0  0  0999 V2000
    2.8863   -6.1856    0.0000 C   0  0  0  0  0  0  0  0  0  0  0  0
    2.0046   -4.9721    0.0000 C   0  0  0  0  0  0  0  0  0  0  0  0
    0.8899   -5.9758    0.0000 C   0  0  0  0  0  0  0  0  0  0  0  0
    3.3037   -4.2221    0.0000 O   0  0  0  0  0  0  0  0  0  0  0  0
    2.9918   -2.7549    0.0000 C   0  0  0  0  0  0  0  0  0  0  0  0
    3.9955   -1.6402    0.0000 O   0  0  0  0  0  0  0  0  0  0  0  0
    1.5000   -2.5981    0.0000 N   0  0  0  0  0  0  0  0  0  0  0  0
    0.7500   -1.2990    0.0000 C   0  0  0  0  0  0  0  0  0  0  0  0
    1.5000    0.0000    0.0000 C   0  0  0  0  0  0  0  0  0  0  0  0
    0.7500    1.2990    0.0000 C   0  0  0  0  0  0  0  0  0  0  0  0
   -0.7500    1.2990    0.0000 C   0  0  0  0  0  0  0  0  0  0  0  0
   -1.5000    2.5981    0.0000 C   0  0  0  0  0  0  0  0  0  0  0  0
   -0.7500    3.8971    0.0000 C   0  0  0  0  0  0  0  0  0  0  0  0
   -1.5000    5.1962    0.0000 N   0  0  0  0  0  0  0  0  0  0  0  0
   -3.0000    5.1962    0.0000 C   0  0  0  0  0  0  0  0  0  0  0  0
   -3.7500    6.4952    0.0000 N   0  0  0  0  0  0  0  0  0  0  0  0
   -3.7500    3.8971    0.0000 C   0  0  0  0  0  0  0  0  0  0  0  0
   -5.2500    3.8971    0.0000 C   0  0  0  0  0  0  0  0  0  0  0  0
   -6.0000    5.1962    0.0000 N   0  0  0  0  0  0  0  0  0  0  0  0
   -7.5000    5.1962    0.0000 C   0  0  0  0  0  0  0  0  0  0  0  0
   -8.2500    3.8971    0.0000 C   0  0  0  0  0  0  0  0  0  0  0  0
   -7.5000    2.5981    0.0000 C   0  0  0  0  0  0  0  0  0  0  0  0
   -6.0000    2.5981    0.0000 N   0  0  0  0  0  0  0  0  0  0  0  0
   -3.0000    2.5981    0.0000 C   0  0  0  0  0  0  0  0  0  0  0  0
   -1.5000    0.0000    0.0000 C   0  0  0  0  0  0  0  0  0  0  0  0
   -0.7500   -1.2990    0.0000 C   0  0  0  0  0  0  0  0  0  0  0  0
    0.8899   -3.9684    0.0000 C   0  0  0  0  0  0  0  0  0  0  0  0
   -0.5773   -4.2803    0.0000 C   0  0  0  0  0  0  0  0  0  0  0  0
   -1.5810   -3.1655    0.0000 C   0  0  0  0  0  0  0  0  0  0  0  0
   -3.0482   -3.4774    0.0000 C   0  0  0  0  0  0  0  0  0  0  0  0
   -3.5118   -4.9040    0.0000 C   0  0  0  0  0  0  0  0  0  0  0  0
   -2.5081   -6.0187    0.0000 C   0  0  0  0  0  0  0  0  0  0  0  0
   -1.0409   -5.7068    0.0000 C   0  0  0  0  0  0  0  0  0  0  0  0
  1  2  1  0
  2  3  1  0
  2  4  1  0
  4  5  1  0
  5  6  2  0
  5  7  1  0
  8  7  1  6
  8  9  1  0
  9 10  1  0
 10 11  1  0
 11 12  1  1
 12 13  2  0
 13 14  1  0
 14 15  2  0
 15 16  1  0
 15 17  1  0
 17 18  1  0
 18 19  2  0
 19 20  1  0
 20 21  2  0
 21 22  1  0
 22 23  2  0
 17 24  2  0
 11 25  1  0
 25 26  1  0
  7 27  1  0
 27 28  1  6
 28 29  2  0
 29 30  1  0
 30 31  2  0
 31 32  1  0
 32 33  2  0
 27  2  1  0
 33 28  1  0
 26  8  1  0
 24 12  1  0
 23 18  1  0
M  END
>  <assay_description>  (1) 
Inhibition of BSEP (unknown origin)

>  <molecule_pref_name>  (1) 
None

>  <canonical_smiles>  (1) 
CC1(C)OC(=O)N([C@H]2CC[C@H](c3cnc(N)c(-c4ncccn4)c3)CC2)[C@H]1c1ccccc1

>  <pchembl_value>  (1) 
4.96

>  <standard_type>  (1) 
IC50

>  <standard_relation>  (1) 
=

>  <standard_value>  (1) 
11000.0

>  <standard_units>  (1) 
nM

>  <target_pref_name>  (1) 
Bile salt export pump

>  <target_organism>  (1) 
Homo sapiens

$$$$
CHEMBL1651956
     RDKit          2D

 86 86  0  0  0  0  0  0  0  0999 V2000
   12.3901   -5.1962    0.0000 C   0  0  0  0  0  0  0  0  0  0  0  0
   11.6401   -3.8971    0.0000 C   0  0  0  0  0  0  0  0  0  0  0  0
   10.1401   -3.8971    0.0000 C   0  0  0  0  0  0  0  0  0  0  0  0
    9.3901   -2.5981    0.0000 C   0  0  0  0  0  0  0  0  0  0  0  0
   10.1401   -1.2990    0.0000 C   0  0  0  0  0  0  0  0  0  0  0  0
   11.6401   -1.2990    0.0000 C   0  0  0  0  0  0  0  0  0  0  0  0
    9.3901    0.0000    0.0000 C   0  0  0  0  0  0  0  0  0  0  0  0
   10.1401    1.2990    0.0000 O   0  0  0  0  0  0  0  0  0  0  0  0
    7.8901    0.0000    0.0000 C   0  0  0  0  0  0  0  0  0  0  0  0
    7.7475    1.4932    0.0000 C   0  0  0  0  0  0  0  0  0  0  0  0
    9.2204    1.7771    0.0000 O   0  0  0  0  0  0  0  0  0  0  0  0
    7.3249    2.9324    0.0000 N   0  0  0  0  0  0  0  0  0  0  0  0
    6.6376    4.2657    0.0000 C   0  0  0  0  0  0  0  0  0  0  0  0
    7.8994    5.0767    0.0000 C   0  0  0  0  0  0  0  0  0  0  0  0
    9.2327    4.3893    0.0000 C   0  0  0  0  0  0  0  0  0  0  0  0
    5.7103    5.4448    0.0000 C   0  0  0  0  0  0  0  0  0  0  0  0
    6.7959    6.4799    0.0000 O   0  0  0  0  0  0  0  0  0  0  0  0
    4.5767    6.4271    0.0000 N   0  0  0  0  0  0  0  0  0  0  0  0
    5.4468    7.6489    0.0000 C   0  0  0  0  0  0  0  0  0  0  0  0
    3.2777    7.1771    0.0000 C   0  0  0  0  0  0  0  0  0  0  0  0
    3.9008    8.5415    0.0000 C   0  0  0  0  0  0  0  0  0  0  0  0
    1.8602    7.6677    0.0000 C   0  0  0  0  0  0  0  0  0  0  0  0
    2.2138    9.1254    0.0000 O   0  0  0  0  0  0  0  0  0  0  0  0
    0.3754    7.8811    0.0000 N   0  0  0  0  0  0  0  0  0  0  0  0
    0.4468    9.3794    0.0000 C   0  0  0  0  0  0  0  0  0  0  0  0
    1.7801   10.0668    0.0000 C   0  0  0  0  0  0  0  0  0  0  0  0
   -1.1229    7.8098    0.0000 C   0  0  0  0  0  0  0  0  0  0  0  0
   -1.3363    9.2945    0.0000 C   0  0  0  0  0  0  0  0  0  0  0  0
   -0.1573   10.2217    0.0000 C   0  0  0  0  0  0  0  0  0  0  0  0
   -2.7289    9.8520    0.0000 C   0  0  0  0  0  0  0  0  0  0  0  0
   -2.5806    7.4561    0.0000 C   0  0  0  0  0  0  0  0  0  0  0  0
   -3.0712    8.8736    0.0000 O   0  0  0  0  0  0  0  0  0  0  0  0
   -3.9450    6.8330    0.0000 N   0  0  0  0  0  0  0  0  0  0  0  0
   -5.1669    5.9629    0.0000 C   0  0  0  0  0  0  0  0  0  0  0  0
   -6.1492    7.0966    0.0000 C   0  0  0  0  0  0  0  0  0  0  0  0
   -5.6586    8.5141    0.0000 C   0  0  0  0  0  0  0  0  0  0  0  0
   -7.6221    6.8127    0.0000 C   0  0  0  0  0  0  0  0  0  0  0  0
   -6.2020    4.8773    0.0000 C   0  0  0  0  0  0  0  0  0  0  0  0
   -7.3811    5.8046    0.0000 O   0  0  0  0  0  0  0  0  0  0  0  0
   -7.0130    3.6154    0.0000 N   0  0  0  0  0  0  0  0  0  0  0  0
   -8.3462    4.3028    0.0000 C   0  0  0  0  0  0  0  0  0  0  0  0
   -7.5705    2.2229    0.0000 C   0  0  0  0  0  0  0  0  0  0  0  0
   -9.0097    2.6455    0.0000 C   0  0  0  0  0  0  0  0  0  0  0  0
   -9.3634    4.1032    0.0000 C   0  0  0  0  0  0  0  0  0  0  0  0
  -10.8026    4.5258    0.0000 C   0  0  0  0  0  0  0  0  0  0  0  0
   -8.2778    5.1383    0.0000 C   0  0  0  0  0  0  0  0  0  0  0  0
   -7.8544    0.7500    0.0000 C   0  0  0  0  0  0  0  0  0  0  0  0
   -9.3476    0.8926    0.0000 O   0  0  0  0  0  0  0  0  0  0  0  0
   -7.8544   -0.7500    0.0000 N   0  0  0  0  0  0  0  0  0  0  0  0
   -7.5705   -2.2229    0.0000 C   0  0  0  0  0  0  0  0  0  0  0  0
   -9.0097   -2.6455    0.0000 C   0  0  0  0  0  0  0  0  0  0  0  0
   -7.0130   -3.6154    0.0000 C   0  0  0  0  0  0  0  0  0  0  0  0
   -8.3462   -4.3028    0.0000 O   0  0  0  0  0  0  0  0  0  0  0  0
   -6.2020   -4.8773    0.0000 N   0  0  0  0  0  0  0  0  0  0  0  0
   -5.1669   -5.9629    0.0000 C   0  0  0  0  0  0  0  0  0  0  0  0
   -6.1492   -7.0966    0.0000 C   0  0  0  0  0  0  0  0  0  0  0  0
   -3.9450   -6.8330    0.0000 C   0  0  0  0  0  0  0  0  0  0  0  0
   -4.6950   -8.1320    0.0000 O   0  0  0  0  0  0  0  0  0  0  0  0
   -2.5806   -7.4561    0.0000 N   0  0  0  0  0  0  0  0  0  0  0  0
   -3.0712   -8.8736    0.0000 C   0  0  0  0  0  0  0  0  0  0  0  0
   -1.1229   -7.8098    0.0000 C   0  0  0  0  0  0  0  0  0  0  0  0
   -1.3363   -9.2945    0.0000 C   0  0  0  0  0  0  0  0  0  0  0  0
   -2.7289   -9.8520    0.0000 C   0  0  0  0  0  0  0  0  0  0  0  0
   -2.9424  -11.3367    0.0000 C   0  0  0  0  0  0  0  0  0  0  0  0
   -3.9080   -8.9248    0.0000 C   0  0  0  0  0  0  0  0  0  0  0  0
    0.3754   -7.8811    0.0000 C   0  0  0  0  0  0  0  0  0  0  0  0
    0.4468   -9.3794    0.0000 O   0  0  0  0  0  0  0  0  0  0  0  0
    1.8602   -7.6677    0.0000 N   0  0  0  0  0  0  0  0  0  0  0  0
    2.2138   -9.1254    0.0000 C   0  0  0  0  0  0  0  0  0  0  0  0
    3.2777   -7.1771    0.0000 C   0  0  0  0  0  0  0  0  0  0  0  0
    3.9008   -8.5415    0.0000 C   0  0  0  0  0  0  0  0  0  0  0  0
    3.0307   -9.7634    0.0000 C   0  0  0  0  0  0  0  0  0  0  0  0
    3.6538  -11.1278    0.0000 C   0  0  0  0  0  0  0  0  0  0  0  0
    1.5375   -9.6208    0.0000 C   0  0  0  0  0  0  0  0  0  0  0  0
    4.5767   -6.4271    0.0000 C   0  0  0  0  0  0  0  0  0  0  0  0
    5.4468   -7.6489    0.0000 O   0  0  0  0  0  0  0  0  0  0  0  0
    5.7103   -5.4448    0.0000 N   0  0  0  0  0  0  0  0  0  0  0  0
    6.7959   -6.4799    0.0000 C   0  0  0  0  0  0  0  0  0  0  0  0
    6.6376   -4.2657    0.0000 C   0  0  0  0  0  0  0  0  0  0  0  0
    7.8994   -5.0767    0.0000 C   0  0  0  0  0  0  0  0  0  0  0  0
    7.8281   -6.5750    0.0000 C   0  0  0  0  0  0  0  0  0  0  0  0
    9.2327   -4.3893    0.0000 C   0  0  0  0  0  0  0  0  0  0  0  0
    7.3249   -2.9324    0.0000 C   0  0  0  0  0  0  0  0  0  0  0  0
    8.7175   -3.4899    0.0000 O   0  0  0  0  0  0  0  0  0  0  0  0
    7.7475   -1.4932    0.0000 N   0  0  0  0  0  0  0  0  0  0  0  0
    9.2204   -1.7771    0.0000 C   0  0  0  0  0  0  0  0  0  0  0  0
  1  2  1  0
  2  3  2  0
  3  4  1  0
  4  5  1  0
  5  6  1  6
  5  7  1  0
  7  8  1  6
  7  9  1  0
  9 10  1  6
 10 11  2  0
 10 12  1  0
 12 13  1  0
 13 14  1  6
 14 15  1  0
 13 16  1  0
 16 17  2  0
 16 18  1  0
 18 19  1  0
 18 20  1  0
 20 21  1  1
 20 22  1  0
 22 23  2  0
 22 24  1  0
 24 25  1  0
 25 26  1  0
 24 27  1  0
 27 28  1  6
 28 29  1  0
 28 30  1  0
 27 31  1  0
 31 32  2  0
 31 33  1  0
 33 34  1  0
 34 35  1  6
 35 36  1  0
 35 37  1  0
 34 38  1  0
 38 39  2  0
 38 40  1  0
 40 41  1  0
 40 42  1  0
 42 43  1  6
 43 44  1  0
 44 45  1  0
 44 46  1  0
 42 47  1  0
 47 48  2  0
 47 49  1  0
 49 50  1  0
 50 51  1  6
 50 52  1  0
 52 53  2  0
 52 54  1  0
 54 55  1  0
 55 56  1  1
 55 57  1  0
 57 58  2  0
 57 59  1  0
 59 60  1  0
 59 61  1  0
 61 62  1  6
 62 63  1  0
 63 64  1  0
 63 65  1  0
 61 66  1  0
 66 67  2  0
 66 68  1  0
 68 69  1  0
 68 70  1  0
 70 71  1  6
 71 72  1  0
 72 73  1  0
 72 74  1  0
 70 75  1  0
 75 76  2  0
 75 77  1  0
 77 78  1  0
 77 79  1  0
 79 80  1  6
 80 81  1  0
 80 82  1  0
 79 83  1  0
 83 84  2  0
 83 85  1  0
 85 86  1  0
 85  9  1  0
M  END
>  <assay_description>  (2) 
Inhibition of BSEP (unknown origin) expressed in HEK293 cells using [3H]taurocholic acid substrate

>  <molecule_pref_name>  (2) 
ALISPORIVIR

>  <canonical_smiles>  (2) 
C/C=C/C[C@@H](C)[C@@H](O)[C@H]1C(=O)N[C@@H](CC)C(=O)N(C)[C@H](C)C(=O)N(CC)[C@@H](C(C)C)C(=O)N[C@@H](C(C)C)C(=O)N(C)[C@@H](CC(C)C)C(=O)N[C@@H](C)C(=O)N[C@H](C)C(=O)N(C)[C@@H](CC(C)C)C(=O)N(C)[C@@H](CC(C)C)C(=O)N(C)[C@@H](C(C)C)C(=O)N1C

>  <pchembl_value>  (2) 
6.96

>  <standard_type>  (2) 
IC50

>  <standard_relation>  (2) 
=

>  <standard_value>  (2) 
110.0

>  <standard_units>  (2) 
nM

>  <target_pref_name>  (2) 
Bile salt export pump

>  <target_organism>  (2) 
Homo sapiens

$$$$
CHEMBL3344501
     RDKit          2D

 95 96  0  0  0  0  0  0  0  0999 V2000
   12.3901   -5.1962    0.0000 C   0  0  0  0  0  0  0  0  0  0  0  0
   11.6401   -3.8971    0.0000 C   0  0  0  0  0  0  0  0  0  0  0  0
   10.1401   -3.8971    0.0000 C   0  0  0  0  0  0  0  0  0  0  0  0
    9.3901   -2.5981    0.0000 C   0  0  0  0  0  0  0  0  0  0  0  0
   10.1401   -1.2990    0.0000 C   0  0  0  0  0  0  0  0  0  0  0  0
   11.6401   -1.2990    0.0000 C   0  0  0  0  0  0  0  0  0  0  0  0
    9.3901    0.0000    0.0000 C   0  0  0  0  0  0  0  0  0  0  0  0
   10.1401    1.2990    0.0000 O   0  0  0  0  0  0  0  0  0  0  0  0
    7.8901    0.0000    0.0000 C   0  0  0  0  0  0  0  0  0  0  0  0
    7.7475    1.4932    0.0000 C   0  0  0  0  0  0  0  0  0  0  0  0
    9.2204    1.7771    0.0000 O   0  0  0  0  0  0  0  0  0  0  0  0
    7.3249    2.9324    0.0000 N   0  0  0  0  0  0  0  0  0  0  0  0
    6.6376    4.2657    0.0000 C   0  0  0  0  0  0  0  0  0  0  0  0
    7.8994    5.0767    0.0000 C   0  0  0  0  0  0  0  0  0  0  0  0
    9.2327    4.3893    0.0000 C   0  0  0  0  0  0  0  0  0  0  0  0
    5.7103    5.4448    0.0000 C   0  0  0  0  0  0  0  0  0  0  0  0
    6.7959    6.4799    0.0000 O   0  0  0  0  0  0  0  0  0  0  0  0
    4.5767    6.4271    0.0000 N   0  0  0  0  0  0  0  0  0  0  0  0
    5.4468    7.6489    0.0000 C   0  0  0  0  0  0  0  0  0  0  0  0
    3.2777    7.1771    0.0000 C   0  0  0  0  0  0  0  0  0  0  0  0
    3.9008    8.5415    0.0000 C   0  0  0  0  0  0  0  0  0  0  0  0
    1.8602    7.6677    0.0000 C   0  0  0  0  0  0  0  0  0  0  0  0
    2.2138    9.1254    0.0000 O   0  0  0  0  0  0  0  0  0  0  0  0
    0.3754    7.8811    0.0000 N   0  0  0  0  0  0  0  0  0  0  0  0
    0.4468    9.3794    0.0000 C   0  0  0  0  0  0  0  0  0  0  0  0
   -1.1229    7.8098    0.0000 C   0  0  0  0  0  0  0  0  0  0  0  0
   -1.3363    9.2945    0.0000 C   0  0  0  0  0  0  0  0  0  0  0  0
   -0.1573   10.2217    0.0000 C   0  0  0  0  0  0  0  0  0  0  0  0
   -2.7289    9.8520    0.0000 C   0  0  0  0  0  0  0  0  0  0  0  0
   -2.9424   11.3367    0.0000 N   0  0  0  0  0  0  0  0  0  0  0  0
   -1.7633   12.2640    0.0000 C   0  0  0  0  0  0  0  0  0  0  0  0
   -1.9768   13.7487    0.0000 C   0  0  0  0  0  0  0  0  0  0  0  0
   -3.3693   14.3062    0.0000 N   0  0  0  0  0  0  0  0  0  0  0  0
   -3.5828   15.7909    0.0000 C   0  0  0  0  0  0  0  0  0  0  0  0
   -2.4037   16.7182    0.0000 C   0  0  0  0  0  0  0  0  0  0  0  0
   -2.6172   18.2029    0.0000 O   0  0  0  0  0  0  0  0  0  0  0  0
   -1.4381   19.1301    0.0000 C   0  0  0  0  0  0  0  0  0  0  0  0
   -4.5484   13.3790    0.0000 C   0  0  0  0  0  0  0  0  0  0  0  0
   -4.3349   11.8942    0.0000 C   0  0  0  0  0  0  0  0  0  0  0  0
   -2.5806    7.4561    0.0000 C   0  0  0  0  0  0  0  0  0  0  0  0
   -3.0712    8.8736    0.0000 O   0  0  0  0  0  0  0  0  0  0  0  0
   -3.9450    6.8330    0.0000 N   0  0  0  0  0  0  0  0  0  0  0  0
   -5.1669    5.9629    0.0000 C   0  0  0  0  0  0  0  0  0  0  0  0
   -6.1492    7.0966    0.0000 C   0  0  0  0  0  0  0  0  0  0  0  0
   -5.6586    8.5141    0.0000 C   0  0  0  0  0  0  0  0  0  0  0  0
   -7.6221    6.8127    0.0000 C   0  0  0  0  0  0  0  0  0  0  0  0
   -6.2020    4.8773    0.0000 C   0  0  0  0  0  0  0  0  0  0  0  0
   -7.3811    5.8046    0.0000 O   0  0  0  0  0  0  0  0  0  0  0  0
   -7.0130    3.6154    0.0000 N   0  0  0  0  0  0  0  0  0  0  0  0
   -8.3462    4.3028    0.0000 C   0  0  0  0  0  0  0  0  0  0  0  0
   -7.5705    2.2229    0.0000 C   0  0  0  0  0  0  0  0  0  0  0  0
   -9.0097    2.6455    0.0000 C   0  0  0  0  0  0  0  0  0  0  0  0
   -9.3634    4.1032    0.0000 C   0  0  0  0  0  0  0  0  0  0  0  0
  -10.8026    4.5258    0.0000 C   0  0  0  0  0  0  0  0  0  0  0  0
   -8.2778    5.1383    0.0000 C   0  0  0  0  0  0  0  0  0  0  0  0
   -7.8544    0.7500    0.0000 C   0  0  0  0  0  0  0  0  0  0  0  0
   -9.3476    0.8926    0.0000 O   0  0  0  0  0  0  0  0  0  0  0  0
   -7.8544   -0.7500    0.0000 N   0  0  0  0  0  0  0  0  0  0  0  0
   -7.5705   -2.2229    0.0000 C   0  0  0  0  0  0  0  0  0  0  0  0
   -9.0097   -2.6455    0.0000 C   0  0  0  0  0  0  0  0  0  0  0  0
   -7.0130   -3.6154    0.0000 C   0  0  0  0  0  0  0  0  0  0  0  0
   -8.3462   -4.3028    0.0000 O   0  0  0  0  0  0  0  0  0  0  0  0
   -6.2020   -4.8773    0.0000 N   0  0  0  0  0  0  0  0  0  0  0  0
   -5.1669   -5.9629    0.0000 C   0  0  0  0  0  0  0  0  0  0  0  0
   -6.1492   -7.0966    0.0000 C   0  0  0  0  0  0  0  0  0  0  0  0
   -3.9450   -6.8330    0.0000 C   0  0  0  0  0  0  0  0  0  0  0  0
   -4.6950   -8.1320    0.0000 O   0  0  0  0  0  0  0  0  0  0  0  0
   -2.5806   -7.4561    0.0000 N   0  0  0  0  0  0  0  0  0  0  0  0
   -3.0712   -8.8736    0.0000 C   0  0  0  0  0  0  0  0  0  0  0  0
   -1.1229   -7.8098    0.0000 C   0  0  0  0  0  0  0  0  0  0  0  0
   -1.3363   -9.2945    0.0000 C   0  0  0  0  0  0  0  0  0  0  0  0
   -2.7289   -9.8520    0.0000 C   0  0  0  0  0  0  0  0  0  0  0  0
   -2.9424  -11.3367    0.0000 C   0  0  0  0  0  0  0  0  0  0  0  0
   -3.9080   -8.9248    0.0000 C   0  0  0  0  0  0  0  0  0  0  0  0
    0.3754   -7.8811    0.0000 C   0  0  0  0  0  0  0  0  0  0  0  0
    0.4468   -9.3794    0.0000 O   0  0  0  0  0  0  0  0  0  0  0  0
    1.8602   -7.6677    0.0000 N   0  0  0  0  0  0  0  0  0  0  0  0
    2.2138   -9.1254    0.0000 C   0  0  0  0  0  0  0  0  0  0  0  0
    3.2777   -7.1771    0.0000 C   0  0  0  0  0  0  0  0  0  0  0  0
    3.9008   -8.5415    0.0000 C   0  0  0  0  0  0  0  0  0  0  0  0
    3.0307   -9.7634    0.0000 C   0  0  0  0  0  0  0  0  0  0  0  0
    3.6538  -11.1278    0.0000 C   0  0  0  0  0  0  0  0  0  0  0  0
    1.5375   -9.6208    0.0000 C   0  0  0  0  0  0  0  0  0  0  0  0
    4.5767   -6.4271    0.0000 C   0  0  0  0  0  0  0  0  0  0  0  0
    5.4468   -7.6489    0.0000 O   0  0  0  0  0  0  0  0  0  0  0  0
    5.7103   -5.4448    0.0000 N   0  0  0  0  0  0  0  0  0  0  0  0
    6.7959   -6.4799    0.0000 C   0  0  0  0  0  0  0  0  0  0  0  0
    6.6376   -4.2657    0.0000 C   0  0  0  0  0  0  0  0  0  0  0  0
    7.8994   -5.0767    0.0000 C   0  0  0  0  0  0  0  0  0  0  0  0
    7.8281   -6.5750    0.0000 C   0  0  0  0  0  0  0  0  0  0  0  0
    9.2327   -4.3893    0.0000 C   0  0  0  0  0  0  0  0  0  0  0  0
    7.3249   -2.9324    0.0000 C   0  0  0  0  0  0  0  0  0  0  0  0
    8.7175   -3.4899    0.0000 O   0  0  0  0  0  0  0  0  0  0  0  0
    7.7475   -1.4932    0.0000 N   0  0  0  0  0  0  0  0  0  0  0  0
    9.2204   -1.7771    0.0000 C   0  0  0  0  0  0  0  0  0  0  0  0
  1  2  1  0
  2  3  2  0
  3  4  1  0
  4  5  1  0
  5  6  1  6
  5  7  1  0
  7  8  1  6
  7  9  1  0
  9 10  1  6
 10 11  2  0
 10 12  1  0
 12 13  1  0
 13 14  1  6
 14 15  1  0
 13 16  1  0
 16 17  2  0
 16 18  1  0
 18 19  1  0
 18 20  1  0
 20 21  1  1
 20 22  1  0
 22 23  2  0
 22 24  1  0
 24 25  1  0
 24 26  1  0
 26 27  1  0
 27 28  1  6
 27 29  1  0
 29 30  1  0
 30 31  1  0
 31 32  1  0
 32 33  1  0
 33 34  1  0
 34 35  1  0
 35 36  1  0
 36 37  1  0
 33 38  1  0
 38 39  1  0
 26 40  1  6
 40 41  2  0
 40 42  1  0
 42 43  1  0
 43 44  1  6
 44 45  1  0
 44 46  1  0
 43 47  1  0
 47 48  2  0
 47 49  1  0
 49 50  1  0
 49 51  1  0
 51 52  1  6
 52 53  1  0
 53 54  1  0
 53 55  1  0
 51 56  1  0
 56 57  2  0
 56 58  1  0
 58 59  1  0
 59 60  1  6
 59 61  1  0
 61 62  2  0
 61 63  1  0
 63 64  1  0
 64 65  1  1
 64 66  1  0
 66 67  2  0
 66 68  1  0
 68 69  1  0
 68 70  1  0
 70 71  1  6
 71 72  1  0
 72 73  1  0
 72 74  1  0
 70 75  1  0
 75 76  2  0
 75 77  1  0
 77 78  1  0
 77 79  1  0
 79 80  1  6
 80 81  1  0
 81 82  1  0
 81 83  1  0
 79 84  1  0
 84 85  2  0
 84 86  1  0
 86 87  1  0
 86 88  1  0
 88 89  1  6
 89 90  1  0
 89 91  1  0
 88 92  1  0
 92 93  2  0
 92 94  1  0
 94 95  1  0
 94  9  1  0
 39 30  1  0
M  END
>  <assay_description>  (3) 
Inhibition of BSEP (unknown origin) expressed in HEK293 cells using [3H]taurocholic acid substrate

>  <molecule_pref_name>  (3) 
None

>  <canonical_smiles>  (3) 
C/C=C/C[C@@H](C)[C@@H](O)[C@H]1C(=O)N[C@@H](CC)C(=O)N(C)[C@H](C)C(=O)N(C)[C@@H]([C@@H](C)CN2CCN(CCOC)CC2)C(=O)N[C@@H](C(C)C)C(=O)N(C)[C@@H](CC(C)C)C(=O)N[C@@H](C)C(=O)N[C@H](C)C(=O)N(C)[C@@H](CC(C)C)C(=O)N(C)[C@@H](CC(C)C)C(=O)N(C)[C@@H](C(C)C)C(=O)N1C

>  <pchembl_value>  (3) 
5.80

>  <standard_type>  (3) 
IC50

>  <standard_relation>  (3) 
=

>  <standard_value>  (3) 
1600.0

>  <standard_units>  (3) 
nM

>  <target_pref_name>  (3) 
Bile salt export pump

>  <target_organism>  (3) 
Homo sapiens

$$$$
CHEMBL976
     RDKit          2D

 23 26  0  0  0  0  0  0  0  0999 V2000
   -6.0000   -5.1962    0.0000 O   0  0  0  0  0  0  0  0  0  0  0  0
   -5.2500   -3.8971    0.0000 C   0  0  0  0  0  0  0  0  0  0  0  0
   -6.0000   -2.5981    0.0000 C   0  0  0  0  0  0  0  0  0  0  0  0
   -5.2500   -1.2990    0.0000 C   0  0  0  0  0  0  0  0  0  0  0  0
   -6.0000    0.0000    0.0000 C   0  0  0  0  0  0  0  0  0  0  0  0
   -7.5000    0.0000    0.0000 C   0  0  0  0  0  0  0  0  0  0  0  0
   -8.2500   -1.2990    0.0000 C   0  0  0  0  0  0  0  0  0  0  0  0
   -7.5000   -2.5981    0.0000 C   0  0  0  0  0  0  0  0  0  0  0  0
   -3.7500   -3.8971    0.0000 N   0  0  0  0  0  0  0  0  0  0  0  0
   -3.0000   -5.1962    0.0000 C   0  0  0  0  0  0  0  0  0  0  0  0
   -1.5000   -5.1962    0.0000 C   0  0  0  0  0  0  0  0  0  0  0  0
   -0.7500   -6.4952    0.0000 O   0  0  0  0  0  0  0  0  0  0  0  0
   -0.7500   -3.8971    0.0000 N   0  0  0  0  0  0  0  0  0  0  0  0
    0.7500   -3.8971    0.0000 C   0  0  0  0  0  0  0  0  0  0  0  0
    1.5000   -2.5981    0.0000 C   0  0  0  0  0  0  0  0  0  0  0  0
    0.7500   -1.2990    0.0000 C   0  0  0  0  0  0  0  0  0  0  0  0
    1.5000    0.0000    0.0000 C   0  0  0  0  0  0  0  0  0  0  0  0
    0.7500    1.2990    0.0000 C   0  0  0  0  0  0  0  0  0  0  0  0
   -0.7500    1.2990    0.0000 C   0  0  0  0  0  0  0  0  0  0  0  0
   -1.5000    0.0000    0.0000 C   0  0  0  0  0  0  0  0  0  0  0  0
   -0.7500   -1.2990    0.0000 C   0  0  0  0  0  0  0  0  0  0  0  0
   -1.5000   -2.5981    0.0000 C   0  0  0  0  0  0  0  0  0  0  0  0
   -3.0000   -2.5981    0.0000 C   0  0  0  0  0  0  0  0  0  0  0  0
  1  2  2  0
  2  3  1  0
  3  4  1  0
  4  5  1  0
  5  6  1  0
  6  7  1  0
  7  8  1  0
  2  9  1  0
  9 10  1  0
 10 11  1  0
 11 12  2  0
 11 13  1  0
 13 14  1  0
 14 15  1  0
 15 16  1  0
 16 17  2  0
 17 18  1  0
 18 19  2  0
 19 20  1  0
 20 21  2  0
 21 22  1  0
 22 23  1  0
  8  3  1  0
 23  9  1  0
 22 13  1  0
 21 16  1  0
M  END
>  <assay_description>  (4) 
Inhibition of human BSEP expressed in plasma membrane vesicles of Sf21 cells assessed as inhibition of ATP-dependent [3H]taurocholate uptake

>  <molecule_pref_name>  (4) 
PRAZIQUANTEL

>  <canonical_smiles>  (4) 
O=C(C1CCCCC1)N1CC(=O)N2CCc3ccccc3C2C1

>  <pchembl_value>  (4) 
4.01

>  <standard_type>  (4) 
IC50

>  <standard_relation>  (4) 
=

>  <standard_value>  (4) 
96800.0

>  <standard_units>  (4) 
nM

>  <target_pref_name>  (4) 
Bile salt export pump

>  <target_organism>  (4) 
Homo sapiens

$$$$
CHEMBL146095
     RDKit          2D

 26 28  0  0  0  0  0  0  0  0999 V2000
    1.5000   -0.0000    0.0000 O   0  0  0  0  0  0  0  0  0  0  0  0
    3.0000   -0.0000    0.0000 C   0  0  0  0  0  0  0  0  0  0  0  0
    3.7500    1.2990    0.0000 O   0  0  0  0  0  0  0  0  0  0  0  0
    3.0000    2.5981    0.0000 C   0  0  0  0  0  0  0  0  0  0  0  0
    3.7500    3.8971    0.0000 C   0  0  0  0  0  0  0  0  0  0  0  0
    5.2500    3.8971    0.0000 O   0  0  0  0  0  0  0  0  0  0  0  0
    3.0000    5.1962    0.0000 C   0  0  0  0  0  0  0  0  0  0  0  0
    3.7500    6.4952    0.0000 O   0  0  0  0  0  0  0  0  0  0  0  0
    3.7500   -1.2990    0.0000 C   0  0  0  0  0  0  0  0  0  0  0  0
    5.2500   -1.2990    0.0000 C   0  0  0  0  0  0  0  0  0  0  0  0
    6.0000   -2.5981    0.0000 C   0  0  0  0  0  0  0  0  0  0  0  0
    5.2500   -3.8971    0.0000 C   0  0  0  0  0  0  0  0  0  0  0  0
    3.7500   -3.8971    0.0000 C   0  0  0  0  0  0  0  0  0  0  0  0
    3.0000   -2.5981    0.0000 C   0  0  0  0  0  0  0  0  0  0  0  0
    1.5000   -2.5981    0.0000 N   0  0  0  0  0  0  0  0  0  0  0  0
    0.7500   -3.8971    0.0000 C   0  0  0  0  0  0  0  0  0  0  0  0
    1.5000   -5.1962    0.0000 C   0  0  0  0  0  0  0  0  0  0  0  0
    0.7500   -6.4952    0.0000 C   0  0  0  0  0  0  0  0  0  0  0  0
   -0.7500   -6.4952    0.0000 N   0  0  0  0  0  0  0  0  0  0  0  0
   -1.5000   -5.1962    0.0000 C   0  0  0  0  0  0  0  0  0  0  0  0
   -3.0000   -5.1962    0.0000 C   0  0  0  0  0  0  0  0  0  0  0  0
   -3.7500   -3.8971    0.0000 C   0  0  0  0  0  0  0  0  0  0  0  0
   -5.2500   -3.8971    0.0000 Cl  0  0  0  0  0  0  0  0  0  0  0  0
   -3.0000   -2.5981    0.0000 C   0  0  0  0  0  0  0  0  0  0  0  0
   -1.5000   -2.5981    0.0000 C   0  0  0  0  0  0  0  0  0  0  0  0
   -0.7500   -3.8971    0.0000 C   0  0  0  0  0  0  0  0  0  0  0  0
  1  2  2  0
  2  3  1  0
  3  4  1  0
  4  5  1  0
  5  6  1  0
  5  7  1  0
  7  8  1  0
  2  9  1  0
  9 10  2  0
 10 11  1  0
 11 12  2  0
 12 13  1  0
 13 14  2  0
 14 15  1  0
 15 16  1  0
 16 17  2  0
 17 18  1  0
 18 19  2  0
 19 20  1  0
 20 21  2  0
 21 22  1  0
 22 23  1  0
 22 24  2  0
 24 25  1  0
 25 26  2  0
 14  9  1  0
 26 16  1  0
 26 20  1  0
M  END
>  <assay_description>  (5) 
Inhibition of human BSEP expressed in plasma membrane vesicles of Sf21 cells assessed as inhibition of ATP-dependent [3H]taurocholate uptake

>  <molecule_pref_name>  (5) 
GLAFENINE

>  <canonical_smiles>  (5) 
O=C(OCC(O)CO)c1ccccc1Nc1ccnc2cc(Cl)ccc12

>  <pchembl_value>  (5) 
4.65

>  <standard_type>  (5) 
IC50

>  <standard_relation>  (5) 
=

>  <standard_value>  (5) 
22300.0

>  <standard_units>  (5) 
nM

>  <target_pref_name>  (5) 
Bile salt export pump

>  <target_organism>  (5) 
Homo sapiens

$$$$
CHEMBL408
     RDKit          2D

 31 34  0  0  0  0  0  0  0  0999 V2000
   -1.5000   -5.1962    0.0000 C   0  0  0  0  0  0  0  0  0  0  0  0
   -0.7500   -3.8971    0.0000 C   0  0  0  0  0  0  0  0  0  0  0  0
   -1.5000   -2.5981    0.0000 C   0  0  0  0  0  0  0  0  0  0  0  0
   -3.0000   -2.5981    0.0000 C   0  0  0  0  0  0  0  0  0  0  0  0
   -0.7500   -1.2990    0.0000 C   0  0  0  0  0  0  0  0  0  0  0  0
    0.7500   -1.2990    0.0000 C   0  0  0  0  0  0  0  0  0  0  0  0
    1.5000   -2.5981    0.0000 C   0  0  0  0  0  0  0  0  0  0  0  0
    3.0000   -2.5981    0.0000 C   0  0  0  0  0  0  0  0  0  0  0  0
    0.7500   -3.8971    0.0000 C   0  0  0  0  0  0  0  0  0  0  0  0
    1.5000   -5.1962    0.0000 O   0  0  0  0  0  0  0  0  0  0  0  0
    1.5000    0.0000    0.0000 C   0  0  0  0  0  0  0  0  0  0  0  0
    0.7500    1.2990    0.0000 C   0  0  0  0  0  0  0  0  0  0  0  0
   -0.7500    1.2990    0.0000 C   0  0  0  0  0  0  0  0  0  0  0  0
   -2.1595    1.8121    0.0000 C   0  0  0  0  0  0  0  0  0  0  0  0
   -0.4895    2.7762    0.0000 C   0  0  0  0  0  0  0  0  0  0  0  0
    0.9200    3.2893    0.0000 O   0  0  0  0  0  0  0  0  0  0  0  0
    1.1805    4.7665    0.0000 C   0  0  0  0  0  0  0  0  0  0  0  0
    2.5900    5.2795    0.0000 C   0  0  0  0  0  0  0  0  0  0  0  0
    2.8505    6.7567    0.0000 C   0  0  0  0  0  0  0  0  0  0  0  0
    1.7014    7.7209    0.0000 C   0  0  0  0  0  0  0  0  0  0  0  0
    1.9619    9.1981    0.0000 C   0  0  0  0  0  0  0  0  0  0  0  0
    3.3714    9.7112    0.0000 C   0  0  0  0  0  0  0  0  0  0  0  0
    3.7849   11.1530    0.0000 S   0  0  0  0  0  0  0  0  0  0  0  0
    5.2840   11.2054    0.0000 C   0  0  0  0  0  0  0  0  0  0  0  0
    6.1228   12.4490    0.0000 O   0  0  0  0  0  0  0  0  0  0  0  0
    5.7970    9.7959    0.0000 N   0  0  0  0  0  0  0  0  0  0  0  0
    4.6150    8.8724    0.0000 C   0  0  0  0  0  0  0  0  0  0  0  0
    4.6673    7.3733    0.0000 O   0  0  0  0  0  0  0  0  0  0  0  0
    0.2919    7.2079    0.0000 C   0  0  0  0  0  0  0  0  0  0  0  0
    0.0314    5.7307    0.0000 C   0  0  0  0  0  0  0  0  0  0  0  0
   -1.5000    0.0000    0.0000 O   0  0  0  0  0  0  0  0  0  0  0  0
  1  2  1  0
  2  3  2  0
  3  4  1  0
  3  5  1  0
  5  6  2  0
  6  7  1  0
  7  8  1  0
  7  9  2  0
  9 10  1  0
  6 11  1  0
 11 12  1  0
 12 13  1  0
 13 14  1  0
 13 15  1  0
 15 16  1  0
 16 17  1  0
 17 18  2  0
 18 19  1  0
 19 20  2  0
 20 21  1  0
 21 22  1  0
 22 23  1  0
 23 24  1  0
 24 25  2  0
 24 26  1  0
 26 27  1  0
 27 28  2  0
 20 29  1  0
 29 30  2  0
 13 31  1  0
  9  2  1  0
 30 17  1  0
 31  5  1  0
 27 22  1  0
M  END
>  <assay_description>  (6) 
Inhibition of human BSEP expressed in plasma membrane vesicles of Sf21 cells assessed as inhibition of ATP-dependent [3H]taurocholate uptake

>  <molecule_pref_name>  (6) 
TROGLITAZONE

>  <canonical_smiles>  (6) 
Cc1c(C)c2c(c(C)c1O)CCC(C)(COc1ccc(CC3SC(=O)NC3=O)cc1)O2

>  <pchembl_value>  (6) 
5.57

>  <standard_type>  (6) 
IC50

>  <standard_relation>  (6) 
=

>  <standard_value>  (6) 
2700.0

>  <standard_units>  (6) 
nM

>  <target_pref_name>  (6) 
Bile salt export pump

>  <target_organism>  (6) 
Homo sapiens

$$$$
CHEMBL833
     RDKit          2D

 17 19  0  0  0  0  0  0  0  0999 V2000
   -5.1793    6.2320    0.0000 Cl  0  0  0  0  0  0  0  0  0  0  0  0
   -3.7527    6.6955    0.0000 C   0  0  0  0  0  0  0  0  0  0  0  0
   -3.4408    8.1628    0.0000 C   0  0  0  0  0  0  0  0  0  0  0  0
   -2.0143    8.6263    0.0000 C   0  0  0  0  0  0  0  0  0  0  0  0
   -0.8995    7.6226    0.0000 C   0  0  0  0  0  0  0  0  0  0  0  0
   -1.2114    6.1554    0.0000 C   0  0  0  0  0  0  0  0  0  0  0  0
   -2.6380    5.6918    0.0000 C   0  0  0  0  0  0  0  0  0  0  0  0
   -2.9499    4.2246    0.0000 C   0  0  0  0  0  0  0  0  0  0  0  0
   -1.8351    3.2209    0.0000 N   0  0  0  0  0  0  0  0  0  0  0  0
   -0.4086    3.6844    0.0000 C   0  0  0  0  0  0  0  0  0  0  0  0
    0.7062    2.6807    0.0000 C   0  0  0  0  0  0  0  0  0  0  0  0
    0.3943    1.2135    0.0000 C   0  0  0  0  0  0  0  0  0  0  0  0
    1.2760    0.0000    0.0000 S   0  0  0  0  0  0  0  0  0  0  0  0
    0.3943   -1.2135    0.0000 C   0  0  0  0  0  0  0  0  0  0  0  0
   -1.0323   -0.7500    0.0000 C   0  0  0  0  0  0  0  0  0  0  0  0
   -1.0323    0.7500    0.0000 C   0  0  0  0  0  0  0  0  0  0  0  0
   -2.1470    1.7537    0.0000 C   0  0  0  0  0  0  0  0  0  0  0  0
  1  2  1  0
  2  3  2  0
  3  4  1  0
  4  5  2  0
  5  6  1  0
  6  7  2  0
  7  8  1  0
  8  9  1  0
  9 10  1  0
 10 11  1  0
 11 12  1  0
 12 13  1  0
 13 14  1  0
 14 15  2  0
 15 16  1  0
 16 17  1  0
  7  2  1  0
 17  9  1  0
 16 12  2  0
M  END
>  <assay_description>  (7) 
Inhibition of human BSEP expressed in plasma membrane vesicles of Sf21 cells assessed as inhibition of ATP-dependent [3H]taurocholate uptake

>  <molecule_pref_name>  (7) 
TICLOPIDINE

>  <canonical_smiles>  (7) 
Clc1ccccc1CN1CCc2sccc2C1

>  <pchembl_value>  (7) 
4.13

>  <standard_type>  (7) 
IC50

>  <standard_relation>  (7) 
=

>  <standard_value>  (7) 
74000.0

>  <standard_units>  (7) 
nM

>  <target_pref_name>  (7) 
Bile salt export pump

>  <target_organism>  (7) 
Homo sapiens

$$$$
CHEMBL121
     RDKit          2D

 25 27  0  0  0  0  0  0  0  0999 V2000
    1.5000   -7.7942    0.0000 C   0  0  0  0  0  0  0  0  0  0  0  0
    0.7500   -6.4952    0.0000 N   0  0  0  0  0  0  0  0  0  0  0  0
    1.5000   -5.1962    0.0000 C   0  0  0  0  0  0  0  0  0  0  0  0
    0.7500   -3.8971    0.0000 C   0  0  0  0  0  0  0  0  0  0  0  0
    1.5000   -2.5981    0.0000 O   0  0  0  0  0  0  0  0  0  0  0  0
    0.7500   -1.2990    0.0000 C   0  0  0  0  0  0  0  0  0  0  0  0
    1.5000    0.0000    0.0000 C   0  0  0  0  0  0  0  0  0  0  0  0
    0.7500    1.2990    0.0000 C   0  0  0  0  0  0  0  0  0  0  0  0
   -0.7500    1.2990    0.0000 C   0  0  0  0  0  0  0  0  0  0  0  0
   -1.5000    2.5981    0.0000 C   0  0  0  0  0  0  0  0  0  0  0  0
   -0.7500    3.8971    0.0000 C   0  0  0  0  0  0  0  0  0  0  0  0
   -1.3601    5.2674    0.0000 S   0  0  0  0  0  0  0  0  0  0  0  0
   -0.2454    6.2711    0.0000 C   0  0  0  0  0  0  0  0  0  0  0  0
   -0.4022    7.7629    0.0000 O   0  0  0  0  0  0  0  0  0  0  0  0
    1.0537    5.5211    0.0000 N   0  0  0  0  0  0  0  0  0  0  0  0
    0.7418    4.0539    0.0000 C   0  0  0  0  0  0  0  0  0  0  0  0
    1.7455    2.9392    0.0000 O   0  0  0  0  0  0  0  0  0  0  0  0
   -1.5000    0.0000    0.0000 C   0  0  0  0  0  0  0  0  0  0  0  0
   -0.7500   -1.2990    0.0000 C   0  0  0  0  0  0  0  0  0  0  0  0
   -0.7500   -6.4952    0.0000 C   0  0  0  0  0  0  0  0  0  0  0  0
   -1.5000   -5.1962    0.0000 C   0  0  0  0  0  0  0  0  0  0  0  0
   -3.0000   -5.1962    0.0000 C   0  0  0  0  0  0  0  0  0  0  0  0
   -3.7500   -6.4952    0.0000 C   0  0  0  0  0  0  0  0  0  0  0  0
   -3.0000   -7.7942    0.0000 C   0  0  0  0  0  0  0  0  0  0  0  0
   -1.5000   -7.7942    0.0000 N   0  0  0  0  0  0  0  0  0  0  0  0
  1  2  1  0
  2  3  1  0
  3  4  1  0
  4  5  1  0
  5  6  1  0
  6  7  2  0
  7  8  1  0
  8  9  2  0
  9 10  1  0
 10 11  1  0
 11 12  1  0
 12 13  1  0
 13 14  2  0
 13 15  1  0
 15 16  1  0
 16 17  2  0
  9 18  1  0
 18 19  2  0
  2 20  1  0
 20 21  2  0
 21 22  1  0
 22 23  2  0
 23 24  1  0
 24 25  2  0
 19  6  1  0
 25 20  1  0
 16 11  1  0
M  END
>  <assay_description>  (8) 
Inhibition of human BSEP expressed in plasma membrane vesicles of Sf21 cells assessed as inhibition of ATP-dependent [3H]taurocholate uptake

>  <molecule_pref_name>  (8) 
ROSIGLITAZONE

>  <canonical_smiles>  (8) 
CN(CCOc1ccc(CC2SC(=O)NC2=O)cc1)c1ccccn1

>  <pchembl_value>  (8) 
5.19

>  <standard_type>  (8) 
IC50

>  <standard_relation>  (8) 
=

>  <standard_value>  (8) 
6400.0

>  <standard_units>  (8) 
nM

>  <target_pref_name>  (8) 
Bile salt export pump

>  <target_organism>  (8) 
Homo sapiens

$$$$
CHEMBL437765
     RDKit          2D

 50 53  0  0  0  0  0  0  0  0999 V2000
    0.4940    8.3646    0.0000 C   0  0  0  0  0  0  0  0  0  0  0  0
   -1.0057    8.3332    0.0000 O   0  0  0  0  0  0  0  0  0  0  0  0
   -1.7283    7.0188    0.0000 C   0  0  0  0  0  0  0  0  0  0  0  0
   -0.5195    6.1307    0.0000 C   0  0  0  0  0  0  0  0  0  0  0  0
    0.4184    4.9601    0.0000 C   0  0  0  0  0  0  0  0  0  0  0  0
    1.0212    3.5866    0.0000 O   0  0  0  0  0  0  0  0  0  0  0  0
    0.3943    1.2135    0.0000 C   0  0  0  0  0  0  0  0  0  0  0  0
    0.8578    2.6401    0.0000 C   0  0  0  0  0  0  0  0  0  0  0  0
    1.2760    0.0000    0.0000 O   0  0  0  0  0  0  0  0  0  0  0  0
    0.3943   -1.2135    0.0000 C   0  0  0  0  0  0  0  0  0  0  0  0
    0.7062   -2.6807    0.0000 C   0  0  0  0  0  0  0  0  0  0  0  0
    2.1328   -3.1443    0.0000 C   0  0  0  0  0  0  0  0  0  0  0  0
   -0.4086   -3.6844    0.0000 C   0  0  0  0  0  0  0  0  0  0  0  0
   -0.0967   -5.1517    0.0000 O   0  0  0  0  0  0  0  0  0  0  0  0
   -1.8351   -3.2209    0.0000 C   0  0  0  0  0  0  0  0  0  0  0  0
   -2.9499   -4.2246    0.0000 C   0  0  0  0  0  0  0  0  0  0  0  0
   -2.6380   -5.6918    0.0000 O   0  0  0  0  0  0  0  0  0  0  0  0
   -4.3764   -3.7611    0.0000 C   0  0  0  0  0  0  0  0  0  0  0  0
   -4.6883   -2.2939    0.0000 C   0  0  0  0  0  0  0  0  0  0  0  0
   -3.5736   -1.2902    0.0000 C   0  0  0  0  0  0  0  0  0  0  0  0
   -3.8855    0.1771    0.0000 O   0  0  0  0  0  0  0  0  0  0  0  0
   -2.1470   -1.7537    0.0000 C   0  0  0  0  0  0  0  0  0  0  0  0
   -1.0323   -0.7500    0.0000 C   0  0  0  0  0  0  0  0  0  0  0  0
   -1.0323    0.7500    0.0000 C   0  0  0  0  0  0  0  0  0  0  0  0
   -2.2458    1.6317    0.0000 O   0  0  0  0  0  0  0  0  0  0  0  0
   -5.8674   -3.5964    0.0000 N   0  0  0  0  0  0  0  0  0  0  0  0
   -7.2649   -3.0515    0.0000 C   0  0  0  0  0  0  0  0  0  0  0  0
   -7.9876   -4.3660    0.0000 O   0  0  0  0  0  0  0  0  0  0  0  0
   -8.4738   -2.1635    0.0000 C   0  0  0  0  0  0  0  0  0  0  0  0
   -9.5120   -3.2461    0.0000 C   0  0  0  0  0  0  0  0  0  0  0  0
   -9.4116   -0.9928    0.0000 C   0  0  0  0  0  0  0  0  0  0  0  0
  -10.0145    0.3807    0.0000 C   0  0  0  0  0  0  0  0  0  0  0  0
  -10.2413    1.8634    0.0000 C   0  0  0  0  0  0  0  0  0  0  0  0
  -10.0767    3.3544    0.0000 C   0  0  0  0  0  0  0  0  0  0  0  0
  -11.5334    3.7122    0.0000 C   0  0  0  0  0  0  0  0  0  0  0  0
   -9.5318    4.7519    0.0000 C   0  0  0  0  0  0  0  0  0  0  0  0
  -10.8462    5.4746    0.0000 O   0  0  0  0  0  0  0  0  0  0  0  0
   -8.6437    5.9608    0.0000 C   0  0  0  0  0  0  0  0  0  0  0  0
   -9.7263    6.9990    0.0000 C   0  0  0  0  0  0  0  0  0  0  0  0
   -7.4731    6.8986    0.0000 C   0  0  0  0  0  0  0  0  0  0  0  0
   -8.2501    8.1817    0.0000 O   0  0  0  0  0  0  0  0  0  0  0  0
   -6.0995    7.5015    0.0000 C   0  0  0  0  0  0  0  0  0  0  0  0
   -6.5180    8.9419    0.0000 C   0  0  0  0  0  0  0  0  0  0  0  0
   -4.6168    7.7283    0.0000 C   0  0  0  0  0  0  0  0  0  0  0  0
   -4.6482    9.2280    0.0000 O   0  0  0  0  0  0  0  0  0  0  0  0
   -5.9626    9.9507    0.0000 C   0  0  0  0  0  0  0  0  0  0  0  0
   -7.2457    9.1737    0.0000 C   0  0  0  0  0  0  0  0  0  0  0  0
   -5.9940   11.4504    0.0000 O   0  0  0  0  0  0  0  0  0  0  0  0
   -3.1259    7.5637    0.0000 C   0  0  0  0  0  0  0  0  0  0  0  0
   -2.7680    9.0204    0.0000 C   0  0  0  0  0  0  0  0  0  0  0  0
  1  2  1  0
  3  2  1  1
  3  4  1  0
  4  5  2  0
  5  6  1  0
  6  7  1  0
  7  8  1  6
  7  9  1  0
  9 10  1  0
 10 11  2  0
 11 12  1  0
 11 13  1  0
 13 14  1  0
 13 15  2  0
 15 16  1  0
 16 17  1  0
 16 18  2  0
 18 19  1  0
 19 20  2  0
 20 21  1  0
 20 22  1  0
 22 23  2  0
 23 24  1  0
 24 25  2  0
 18 26  1  0
 26 27  1  0
 27 28  2  0
 27 29  1  0
 29 30  1  0
 29 31  2  0
 31 32  1  0
 32 33  2  0
 33 34  1  0
 34 35  1  6
 34 36  1  0
 36 37  1  6
 36 38  1  0
 38 39  1  1
 38 40  1  0
 40 41  1  1
 40 42  1  0
 42 43  1  1
 42 44  1  0
 44 45  1  6
 45 46  1  0
 46 47  1  0
 46 48  2  0
 44 49  1  0
 49 50  1  6
 49  3  1  0
 24  7  1  0
 23 10  1  0
 22 15  1  0
M  END
>  <assay_description>  (9) 
Inhibition of human BSEP expressed in plasma membrane vesicles of Sf21 cells assessed as inhibition of ATP-dependent [3H]taurocholate uptake

>  <molecule_pref_name>  (9) 
RIFAMYCIN

>  <canonical_smiles>  (9) 
CO[C@H]1/C=C/O[C@@]2(C)Oc3c(C)c(O)c4c(O)c(cc(O)c4c3C2=O)NC(=O)/C(C)=C\C=C\[C@H](C)[C@H](O)[C@@H](C)[C@@H](O)[C@@H](C)[C@H](OC(C)=O)[C@@H]1C

>  <pchembl_value>  (9) 
5.20

>  <standard_type>  (9) 
IC50

>  <standard_relation>  (9) 
=

>  <standard_value>  (9) 
6300.0

>  <standard_units>  (9) 
nM

>  <target_pref_name>  (9) 
Bile salt export pump

>  <target_organism>  (9) 
Homo sapiens

$$$$
CHEMBL374478
     RDKit          2D

 59 63  0  0  0  0  0  0  0  0999 V2000
    0.4940    8.3646    0.0000 C   0  0  0  0  0  0  0  0  0  0  0  0
   -1.0057    8.3332    0.0000 O   0  0  0  0  0  0  0  0  0  0  0  0
   -1.7283    7.0188    0.0000 C   0  0  0  0  0  0  0  0  0  0  0  0
   -0.5195    6.1307    0.0000 C   0  0  0  0  0  0  0  0  0  0  0  0
    0.4184    4.9601    0.0000 C   0  0  0  0  0  0  0  0  0  0  0  0
    1.0212    3.5866    0.0000 O   0  0  0  0  0  0  0  0  0  0  0  0
    0.3943    1.2135    0.0000 C   0  0  0  0  0  0  0  0  0  0  0  0
    0.8578    2.6401    0.0000 C   0  0  0  0  0  0  0  0  0  0  0  0
    1.2760    0.0000    0.0000 O   0  0  0  0  0  0  0  0  0  0  0  0
    0.3943   -1.2135    0.0000 C   0  0  0  0  0  0  0  0  0  0  0  0
    0.7062   -2.6807    0.0000 C   0  0  0  0  0  0  0  0  0  0  0  0
    2.1328   -3.1443    0.0000 C   0  0  0  0  0  0  0  0  0  0  0  0
   -0.4086   -3.6844    0.0000 C   0  0  0  0  0  0  0  0  0  0  0  0
   -0.0967   -5.1517    0.0000 O   0  0  0  0  0  0  0  0  0  0  0  0
   -1.8351   -3.2209    0.0000 C   0  0  0  0  0  0  0  0  0  0  0  0
   -2.9499   -4.2246    0.0000 C   0  0  0  0  0  0  0  0  0  0  0  0
   -2.6380   -5.6918    0.0000 O   0  0  0  0  0  0  0  0  0  0  0  0
   -4.3764   -3.7611    0.0000 C   0  0  0  0  0  0  0  0  0  0  0  0
   -4.6883   -2.2939    0.0000 C   0  0  0  0  0  0  0  0  0  0  0  0
   -6.1149   -1.8303    0.0000 C   0  0  0  0  0  0  0  0  0  0  0  0
   -6.4268   -0.3631    0.0000 N   0  0  0  0  0  0  0  0  0  0  0  0
   -7.8533    0.1004    0.0000 N   0  0  0  0  0  0  0  0  0  0  0  0
   -8.1652    1.5676    0.0000 C   0  0  0  0  0  0  0  0  0  0  0  0
   -9.5918    2.0312    0.0000 C   0  0  0  0  0  0  0  0  0  0  0  0
  -10.7065    1.0275    0.0000 N   0  0  0  0  0  0  0  0  0  0  0  0
  -12.1331    1.4910    0.0000 C   0  0  0  0  0  0  0  0  0  0  0  0
  -10.3946   -0.4398    0.0000 C   0  0  0  0  0  0  0  0  0  0  0  0
   -8.9681   -0.9033    0.0000 C   0  0  0  0  0  0  0  0  0  0  0  0
   -3.5736   -1.2902    0.0000 C   0  0  0  0  0  0  0  0  0  0  0  0
   -3.8855    0.1771    0.0000 O   0  0  0  0  0  0  0  0  0  0  0  0
   -2.1470   -1.7537    0.0000 C   0  0  0  0  0  0  0  0  0  0  0  0
   -1.0323   -0.7500    0.0000 C   0  0  0  0  0  0  0  0  0  0  0  0
   -1.0323    0.7500    0.0000 C   0  0  0  0  0  0  0  0  0  0  0  0
   -2.2458    1.6317    0.0000 O   0  0  0  0  0  0  0  0  0  0  0  0
   -5.8674   -3.5964    0.0000 N   0  0  0  0  0  0  0  0  0  0  0  0
   -7.2649   -3.0515    0.0000 C   0  0  0  0  0  0  0  0  0  0  0  0
   -7.9876   -4.3660    0.0000 O   0  0  0  0  0  0  0  0  0  0  0  0
   -8.4738   -2.1635    0.0000 C   0  0  0  0  0  0  0  0  0  0  0  0
   -9.5120   -3.2461    0.0000 C   0  0  0  0  0  0  0  0  0  0  0  0
   -9.4116   -0.9928    0.0000 C   0  0  0  0  0  0  0  0  0  0  0  0
  -10.0145    0.3807    0.0000 C   0  0  0  0  0  0  0  0  0  0  0  0
  -10.2413    1.8634    0.0000 C   0  0  0  0  0  0  0  0  0  0  0  0
  -10.0767    3.3544    0.0000 C   0  0  0  0  0  0  0  0  0  0  0  0
  -11.5334    3.7122    0.0000 C   0  0  0  0  0  0  0  0  0  0  0  0
   -9.5318    4.7519    0.0000 C   0  0  0  0  0  0  0  0  0  0  0  0
  -10.8462    5.4746    0.0000 O   0  0  0  0  0  0  0  0  0  0  0  0
   -8.6437    5.9608    0.0000 C   0  0  0  0  0  0  0  0  0  0  0  0
   -9.7263    6.9990    0.0000 C   0  0  0  0  0  0  0  0  0  0  0  0
   -7.4731    6.8986    0.0000 C   0  0  0  0  0  0  0  0  0  0  0  0
   -8.2501    8.1817    0.0000 O   0  0  0  0  0  0  0  0  0  0  0  0
   -6.0995    7.5015    0.0000 C   0  0  0  0  0  0  0  0  0  0  0  0
   -6.5180    8.9419    0.0000 C   0  0  0  0  0  0  0  0  0  0  0  0
   -4.6168    7.7283    0.0000 C   0  0  0  0  0  0  0  0  0  0  0  0
   -4.6482    9.2280    0.0000 O   0  0  0  0  0  0  0  0  0  0  0  0
   -3.3651   10.0050    0.0000 C   0  0  0  0  0  0  0  0  0  0  0  0
   -3.3965   11.5047    0.0000 C   0  0  0  0  0  0  0  0  0  0  0  0
   -1.9724    9.4480    0.0000 O   0  0  0  0  0  0  0  0  0  0  0  0
   -3.1259    7.5637    0.0000 C   0  0  0  0  0  0  0  0  0  0  0  0
   -2.5931    8.9659    0.0000 C   0  0  0  0  0  0  0  0  0  0  0  0
  1  2  1  0
  3  2  1  1
  3  4  1  0
  4  5  2  0
  5  6  1  0
  6  7  1  0
  7  8  1  6
  7  9  1  0
  9 10  1  0
 10 11  2  0
 11 12  1  0
 11 13  1  0
 13 14  1  0
 13 15  2  0
 15 16  1  0
 16 17  1  0
 16 18  2  0
 18 19  1  0
 19 20  1  0
 20 21  2  0
 21 22  1  0
 22 23  1  0
 23 24  1  0
 24 25  1  0
 25 26  1  0
 25 27  1  0
 27 28  1  0
 19 29  2  0
 29 30  1  0
 29 31  1  0
 31 32  2  0
 32 33  1  0
 33 34  2  0
 18 35  1  0
 35 36  1  0
 36 37  2  0
 36 38  1  0
 38 39  1  0
 38 40  2  0
 40 41  1  0
 41 42  2  0
 42 43  1  0
 43 44  1  6
 43 45  1  0
 45 46  1  6
 45 47  1  0
 47 48  1  1
 47 49  1  0
 49 50  1  1
 49 51  1  0
 51 52  1  1
 51 53  1  0
 53 54  1  6
 54 55  1  0
 55 56  1  0
 55 57  2  0
 53 58  1  0
 58 59  1  6
 58  3  1  0
 33  7  1  0
 32 10  1  0
 31 15  1  0
 28 22  1  0
M  END
>  <assay_description>  (10) 
Inhibition of human BSEP expressed in plasma membrane vesicles of Sf21 cells assessed as inhibition of ATP-dependent [3H]taurocholate uptake

>  <molecule_pref_name>  (10) 
RIFAMPIN

>  <canonical_smiles>  (10) 
CO[C@H]1/C=C/O[C@@]2(C)Oc3c(C)c(O)c4c(O)c(c(/C=N/N5CCN(C)CC5)c(O)c4c3C2=O)NC(=O)/C(C)=C\C=C\[C@H](C)[C@H](O)[C@@H](C)[C@@H](O)[C@@H](C)[C@H](OC(C)=O)[C@@H]1C

>  <pchembl_value>  (10) 
4.95

>  <standard_type>  (10) 
IC50

>  <standard_relation>  (10) 
=

>  <standard_value>  (10) 
11300.0

>  <standard_units>  (10) 
nM

>  <target_pref_name>  (10) 
Bile salt export pump

>  <target_organism>  (10) 
Homo sapiens

$$$$
CHEMBL595
     RDKit          2D

 25 27  0  0  0  0  0  0  0  0999 V2000
    3.7500   -1.2990    0.0000 C   0  0  0  0  0  0  0  0  0  0  0  0
    3.0000    0.0000    0.0000 C   0  0  0  0  0  0  0  0  0  0  0  0
    1.5000    0.0000    0.0000 C   0  0  0  0  0  0  0  0  0  0  0  0
    0.7500   -1.2990    0.0000 C   0  0  0  0  0  0  0  0  0  0  0  0
   -0.7500   -1.2990    0.0000 C   0  0  0  0  0  0  0  0  0  0  0  0
   -1.5000    0.0000    0.0000 C   0  0  0  0  0  0  0  0  0  0  0  0
   -3.0000    0.0000    0.0000 C   0  0  0  0  0  0  0  0  0  0  0  0
   -3.7500    1.2990    0.0000 C   0  0  0  0  0  0  0  0  0  0  0  0
   -5.2500    1.2990    0.0000 O   0  0  0  0  0  0  0  0  0  0  0  0
   -6.0000    2.5981    0.0000 C   0  0  0  0  0  0  0  0  0  0  0  0
   -5.2500    3.8971    0.0000 C   0  0  0  0  0  0  0  0  0  0  0  0
   -6.0000    5.1962    0.0000 C   0  0  0  0  0  0  0  0  0  0  0  0
   -7.5000    5.1962    0.0000 C   0  0  0  0  0  0  0  0  0  0  0  0
   -8.2500    6.4952    0.0000 C   0  0  0  0  0  0  0  0  0  0  0  0
   -7.5000    7.7942    0.0000 C   0  0  0  0  0  0  0  0  0  0  0  0
   -8.1101    9.1645    0.0000 S   0  0  0  0  0  0  0  0  0  0  0  0
   -6.9954   10.1682    0.0000 C   0  0  0  0  0  0  0  0  0  0  0  0
   -7.1522   11.6600    0.0000 O   0  0  0  0  0  0  0  0  0  0  0  0
   -5.6963    9.4182    0.0000 N   0  0  0  0  0  0  0  0  0  0  0  0
   -6.0082    7.9510    0.0000 C   0  0  0  0  0  0  0  0  0  0  0  0
   -5.0045    6.8363    0.0000 O   0  0  0  0  0  0  0  0  0  0  0  0
   -8.2500    3.8971    0.0000 C   0  0  0  0  0  0  0  0  0  0  0  0
   -7.5000    2.5981    0.0000 C   0  0  0  0  0  0  0  0  0  0  0  0
   -0.7500    1.2990    0.0000 N   0  0  0  0  0  0  0  0  0  0  0  0
    0.7500    1.2990    0.0000 C   0  0  0  0  0  0  0  0  0  0  0  0
  1  2  1  0
  2  3  1  0
  3  4  2  0
  4  5  1  0
  5  6  2  0
  6  7  1  0
  7  8  1  0
  8  9  1  0
  9 10  1  0
 10 11  2  0
 11 12  1  0
 12 13  2  0
 13 14  1  0
 14 15  1  0
 15 16  1  0
 16 17  1  0
 17 18  2  0
 17 19  1  0
 19 20  1  0
 20 21  2  0
 13 22  1  0
 22 23  2  0
  6 24  1  0
 24 25  2  0
 25  3  1  0
 23 10  1  0
 20 15  1  0
M  END
>  <assay_description>  (11) 
Inhibition of human BSEP expressed in plasma membrane vesicles of Sf21 cells assessed as inhibition of ATP-dependent [3H]taurocholate uptake

>  <molecule_pref_name>  (11) 
PIOGLITAZONE

>  <canonical_smiles>  (11) 
CCc1ccc(CCOc2ccc(CC3SC(=O)NC3=O)cc2)nc1

>  <pchembl_value>  (11) 
6.52

>  <standard_type>  (11) 
IC50

>  <standard_relation>  (11) 
=

>  <standard_value>  (11) 
300.0

>  <standard_units>  (11) 
nM

>  <target_pref_name>  (11) 
Bile salt export pump

>  <target_organism>  (11) 
Homo sapiens

$$$$
CHEMBL193
     RDKit          2D

 25 26  0  0  0  0  0  0  0  0999 V2000
    5.2500   -1.2990    0.0000 C   0  0  0  0  0  0  0  0  0  0  0  0
    3.7500   -1.2990    0.0000 O   0  0  0  0  0  0  0  0  0  0  0  0
    3.0000    0.0000    0.0000 C   0  0  0  0  0  0  0  0  0  0  0  0
    3.7500    1.2990    0.0000 O   0  0  0  0  0  0  0  0  0  0  0  0
    1.5000    0.0000    0.0000 C   0  0  0  0  0  0  0  0  0  0  0  0
    0.7500   -1.2990    0.0000 C   0  0  0  0  0  0  0  0  0  0  0  0
    1.5000   -2.5981    0.0000 C   0  0  0  0  0  0  0  0  0  0  0  0
   -0.7500   -1.2990    0.0000 N   0  0  0  0  0  0  0  0  0  0  0  0
   -1.5000    0.0000    0.0000 C   0  0  0  0  0  0  0  0  0  0  0  0
   -3.0000    0.0000    0.0000 C   0  0  0  0  0  0  0  0  0  0  0  0
   -0.7500    1.2990    0.0000 C   0  0  0  0  0  0  0  0  0  0  0  0
   -1.5000    2.5981    0.0000 C   0  0  0  0  0  0  0  0  0  0  0  0
   -1.2803    3.3644    0.0000 O   0  0  0  0  0  0  0  0  0  0  0  0
   -3.0000    2.5981    0.0000 O   0  0  0  0  0  0  0  0  0  0  0  0
   -3.7500    3.8971    0.0000 C   0  0  0  0  0  0  0  0  0  0  0  0
    0.7500    1.2990    0.0000 C   0  0  0  0  0  0  0  0  0  0  0  0
    1.5000    2.5981    0.0000 C   0  0  0  0  0  0  0  0  0  0  0  0
    3.0000    2.5981    0.0000 C   0  0  0  0  0  0  0  0  0  0  0  0
    3.7500    3.8971    0.0000 C   0  0  0  0  0  0  0  0  0  0  0  0
    3.0000    5.1962    0.0000 C   0  0  0  0  0  0  0  0  0  0  0  0
    1.5000    5.1962    0.0000 C   0  0  0  0  0  0  0  0  0  0  0  0
    0.7500    3.8971    0.0000 C   0  0  0  0  0  0  0  0  0  0  0  0
   -0.7500    3.8971    0.0000 N   0  0  0  0  0  4  0  0  0  0  0  0
   -1.7920    2.8182    0.0000 O   0  0  0  0  0  0  0  0  0  0  0  0
   -1.5000    5.1962    0.0000 O   0  0  0  0  0  1  0  0  0  0  0  0
  1  2  1  0
  2  3  1  0
  3  4  2  0
  3  5  1  0
  5  6  2  0
  6  7  1  0
  6  8  1  0
  8  9  1  0
  9 10  1  0
  9 11  2  0
 11 12  1  0
 12 13  2  0
 12 14  1  0
 14 15  1  0
 11 16  1  0
 16 17  1  0
 17 18  2  0
 18 19  1  0
 19 20  2  0
 20 21  1  0
 21 22  2  0
 22 23  1  0
 23 24  2  0
 23 25  1  0
 16  5  1  0
 22 17  1  0
M  CHG  2  23   1  25  -1
M  END
>  <assay_description>  (12) 
Inhibition of human BSEP expressed in plasma membrane vesicles of Sf21 cells assessed as inhibition of ATP-dependent [3H]taurocholate uptake

>  <molecule_pref_name>  (12) 
NIFEDIPINE

>  <canonical_smiles>  (12) 
COC(=O)C1=C(C)NC(C)=C(C(=O)OC)C1c1ccccc1[N+](=O)[O-]

>  <pchembl_value>  (12) 
4.51

>  <standard_type>  (12) 
IC50

>  <standard_relation>  (12) 
=

>  <standard_value>  (12) 
30700.0

>  <standard_units>  (12) 
nM

>  <target_pref_name>  (12) 
Bile salt export pump

>  <target_organism>  (12) 
Homo sapiens

$$$$
CHEMBL623
     RDKit          2D

 33 36  0  0  0  0  0  0  0  0999 V2000
   -0.8113  -11.2427    0.0000 C   0  0  0  0  0  0  0  0  0  0  0  0
    0.4022  -10.3610    0.0000 C   0  0  0  0  0  0  0  0  0  0  0  0
    0.2454   -8.8692    0.0000 C   0  0  0  0  0  0  0  0  0  0  0  0
    1.3601   -7.8655    0.0000 N   0  0  0  0  0  0  0  0  0  0  0  0
    0.7500   -6.4952    0.0000 N   0  0  0  0  0  0  0  0  0  0  0  0
    1.5000   -5.1962    0.0000 C   0  0  0  0  0  0  0  0  0  0  0  0
    0.7500   -3.8971    0.0000 C   0  0  0  0  0  0  0  0  0  0  0  0
    1.5000   -2.5981    0.0000 C   0  0  0  0  0  0  0  0  0  0  0  0
    0.7500   -1.2990    0.0000 N   0  0  0  0  0  0  0  0  0  0  0  0
    1.5000    0.0000    0.0000 C   0  0  0  0  0  0  0  0  0  0  0  0
    0.7500    1.2990    0.0000 C   0  0  0  0  0  0  0  0  0  0  0  0
   -0.7500    1.2990    0.0000 N   0  0  0  0  0  0  0  0  0  0  0  0
   -1.5000    2.5981    0.0000 C   0  0  0  0  0  0  0  0  0  0  0  0
   -0.7500    3.8971    0.0000 C   0  0  0  0  0  0  0  0  0  0  0  0
   -1.5000    5.1962    0.0000 C   0  0  0  0  0  0  0  0  0  0  0  0
   -3.0000    5.1962    0.0000 C   0  0  0  0  0  0  0  0  0  0  0  0
   -3.7500    3.8971    0.0000 C   0  0  0  0  0  0  0  0  0  0  0  0
   -5.2500    3.8971    0.0000 Cl  0  0  0  0  0  0  0  0  0  0  0  0
   -3.0000    2.5981    0.0000 C   0  0  0  0  0  0  0  0  0  0  0  0
   -1.5000    0.0000    0.0000 C   0  0  0  0  0  0  0  0  0  0  0  0
   -0.7500   -1.2990    0.0000 C   0  0  0  0  0  0  0  0  0  0  0  0
   -0.7418   -6.6520    0.0000 C   0  0  0  0  0  0  0  0  0  0  0  0
   -1.7455   -5.5373    0.0000 O   0  0  0  0  0  0  0  0  0  0  0  0
   -1.0537   -8.1192    0.0000 N   0  0  0  0  0  0  0  0  0  0  0  0
   -2.4240   -8.7293    0.0000 C   0  0  0  0  0  0  0  0  0  0  0  0
   -3.6375   -7.8476    0.0000 C   0  0  0  0  0  0  0  0  0  0  0  0
   -5.0078   -8.4577    0.0000 O   0  0  0  0  0  0  0  0  0  0  0  0
   -6.2213   -7.5761    0.0000 C   0  0  0  0  0  0  0  0  0  0  0  0
   -6.0645   -6.0843    0.0000 C   0  0  0  0  0  0  0  0  0  0  0  0
   -7.2781   -5.2026    0.0000 C   0  0  0  0  0  0  0  0  0  0  0  0
   -8.6484   -5.8127    0.0000 C   0  0  0  0  0  0  0  0  0  0  0  0
   -8.8052   -7.3045    0.0000 C   0  0  0  0  0  0  0  0  0  0  0  0
   -7.5917   -8.1862    0.0000 C   0  0  0  0  0  0  0  0  0  0  0  0
  1  2  1  0
  2  3  1  0
  3  4  2  0
  4  5  1  0
  5  6  1  0
  6  7  1  0
  7  8  1  0
  8  9  1  0
  9 10  1  0
 10 11  1  0
 11 12  1  0
 12 13  1  0
 13 14  2  0
 14 15  1  0
 15 16  2  0
 16 17  1  0
 17 18  1  0
 17 19  2  0
 12 20  1  0
 20 21  1  0
  5 22  1  0
 22 23  2  0
 22 24  1  0
 24 25  1  0
 25 26  1  0
 26 27  1  0
 27 28  1  0
 28 29  2  0
 29 30  1  0
 30 31  2  0
 31 32  1  0
 32 33  2  0
 24  3  1  0
 33 28  1  0
 21  9  1  0
 19 13  1  0
M  END
>  <assay_description>  (13) 
Inhibition of human BSEP expressed in plasma membrane vesicles of Sf21 cells assessed as inhibition of ATP-dependent [3H]taurocholate uptake

>  <molecule_pref_name>  (13) 
NEFAZODONE

>  <canonical_smiles>  (13) 
CCc1nn(CCCN2CCN(c3cccc(Cl)c3)CC2)c(=O)n1CCOc1ccccc1

>  <pchembl_value>  (13) 
5.38

>  <standard_type>  (13) 
IC50

>  <standard_relation>  (13) 
=

>  <standard_value>  (13) 
4200.0

>  <standard_units>  (13) 
nM

>  <target_pref_name>  (13) 
Bile salt export pump

>  <target_organism>  (13) 
Homo sapiens

$$$$
CHEMBL157101
     RDKit          2D

 36 40  0  0  0  0  0  0  0  0999 V2000
    3.7500   -1.2990    0.0000 C   0  0  0  0  0  0  0  0  0  0  0  0
    3.0000    0.0000    0.0000 C   0  0  0  0  0  0  0  0  0  0  0  0
    3.7500    1.2990    0.0000 O   0  0  0  0  0  0  0  0  0  0  0  0
    1.5000    0.0000    0.0000 N   0  0  0  0  0  0  0  0  0  0  0  0
    0.7500   -1.2990    0.0000 C   0  0  0  0  0  0  0  0  0  0  0  0
   -0.7500   -1.2990    0.0000 C   0  0  0  0  0  0  0  0  0  0  0  0
   -1.5000    0.0000    0.0000 N   0  0  0  0  0  0  0  0  0  0  0  0
   -3.0000    0.0000    0.0000 C   0  0  0  0  0  0  0  0  0  0  0  0
   -3.7500    1.2990    0.0000 C   0  0  0  0  0  0  0  0  0  0  0  0
   -5.2500    1.2990    0.0000 C   0  0  0  0  0  0  0  0  0  0  0  0
   -6.0000    0.0000    0.0000 C   0  0  0  0  0  0  0  0  0  0  0  0
   -7.5000    0.0000    0.0000 O   0  0  0  0  0  0  0  0  0  0  0  0
   -8.2500    1.2990    0.0000 C   0  0  0  0  0  0  0  0  0  0  0  0
   -9.7500    1.2990    0.0000 C   0  0  0  0  0  0  0  0  0  0  0  0
  -10.6317    0.0855    0.0000 C   0  0  0  0  0  0  0  0  0  0  0  0
  -12.0583    0.5490    0.0000 O   0  0  0  0  0  0  0  0  0  0  0  0
  -12.0583    2.0490    0.0000 C   0  0  0  0  0  0  0  0  0  0  0  0
  -12.3701    3.5163    0.0000 C   0  0  0  0  0  0  0  0  0  0  0  0
  -11.2554    4.5200    0.0000 N   0  0  0  0  0  0  0  0  0  0  0  0
  -11.4122    6.0117    0.0000 C   0  0  0  0  0  0  0  0  0  0  0  0
  -10.0419    6.6218    0.0000 C   0  0  0  0  0  0  0  0  0  0  0  0
   -9.0382    5.5071    0.0000 N   0  0  0  0  0  0  0  0  0  0  0  0
   -9.7882    4.2081    0.0000 C   0  0  0  0  0  0  0  0  0  0  0  0
  -13.5500    1.8922    0.0000 C   0  0  0  0  0  0  0  0  0  0  0  0
  -14.4317    3.1058    0.0000 C   0  0  0  0  0  0  0  0  0  0  0  0
  -15.9235    2.9490    0.0000 C   0  0  0  0  0  0  0  0  0  0  0  0
  -16.5336    1.5787    0.0000 C   0  0  0  0  0  0  0  0  0  0  0  0
  -18.0254    1.4219    0.0000 Cl  0  0  0  0  0  0  0  0  0  0  0  0
  -15.6519    0.3651    0.0000 C   0  0  0  0  0  0  0  0  0  0  0  0
  -14.1602    0.5219    0.0000 C   0  0  0  0  0  0  0  0  0  0  0  0
  -13.2785   -0.6916    0.0000 Cl  0  0  0  0  0  0  0  0  0  0  0  0
  -10.6317    2.5126    0.0000 O   0  0  0  0  0  0  0  0  0  0  0  0
   -5.2500   -1.2990    0.0000 C   0  0  0  0  0  0  0  0  0  0  0  0
   -3.7500   -1.2990    0.0000 C   0  0  0  0  0  0  0  0  0  0  0  0
   -0.7500    1.2990    0.0000 C   0  0  0  0  0  0  0  0  0  0  0  0
    0.7500    1.2990    0.0000 C   0  0  0  0  0  0  0  0  0  0  0  0
  1  2  1  0
  2  3  2  0
  2  4  1  0
  4  5  1  0
  5  6  1  0
  6  7  1  0
  7  8  1  0
  8  9  2  0
  9 10  1  0
 10 11  2  0
 11 12  1  0
 12 13  1  0
 13 14  1  0
 14 15  1  0
 15 16  1  0
 16 17  1  0
 17 18  1  0
 18 19  1  0
 19 20  1  0
 20 21  2  0
 21 22  1  0
 22 23  2  0
 17 24  1  0
 24 25  2  0
 25 26  1  0
 26 27  2  0
 27 28  1  0
 27 29  1  0
 29 30  2  0
 30 31  1  0
 17 32  1  0
 11 33  1  0
 33 34  2  0
  7 35  1  0
 35 36  1  0
 36  4  1  0
 34  8  1  0
 32 14  1  0
 23 19  1  0
 30 24  1  0
M  END
>  <assay_description>  (14) 
Inhibition of human BSEP expressed in plasma membrane vesicles of Sf21 cells assessed as inhibition of ATP-dependent [3H]taurocholate uptake

>  <molecule_pref_name>  (14) 
KETOCONAZOLE

>  <canonical_smiles>  (14) 
CC(=O)N1CCN(c2ccc(OCC3COC(Cn4ccnc4)(c4ccc(Cl)cc4Cl)O3)cc2)CC1

>  <pchembl_value>  (14) 
5.54

>  <standard_type>  (14) 
IC50

>  <standard_relation>  (14) 
=

>  <standard_value>  (14) 
2900.0

>  <standard_units>  (14) 
nM

>  <target_pref_name>  (14) 
Bile salt export pump

>  <target_organism>  (14) 
Homo sapiens

$$$$
CHEMBL472
     RDKit          2D

 33 35  0  0  0  0  0  0  0  0999 V2000
    3.7500   -1.2990    0.0000 C   0  0  0  0  0  0  0  0  0  0  0  0
    3.0000    0.0000    0.0000 O   0  0  0  0  0  0  0  0  0  0  0  0
    1.5000    0.0000    0.0000 C   0  0  0  0  0  0  0  0  0  0  0  0
    0.7500   -1.2990    0.0000 C   0  0  0  0  0  0  0  0  0  0  0  0
   -0.7500   -1.2990    0.0000 C   0  0  0  0  0  0  0  0  0  0  0  0
   -1.5000    0.0000    0.0000 C   0  0  0  0  0  0  0  0  0  0  0  0
   -3.0000    0.0000    0.0000 Cl  0  0  0  0  0  0  0  0  0  0  0  0
   -0.7500    1.2990    0.0000 C   0  0  0  0  0  0  0  0  0  0  0  0
    0.7500    1.2990    0.0000 C   0  0  0  0  0  0  0  0  0  0  0  0
    1.5000    2.5981    0.0000 C   0  0  0  0  0  0  0  0  0  0  0  0
    0.7500    3.8971    0.0000 O   0  0  0  0  0  0  0  0  0  0  0  0
    3.0000    2.5981    0.0000 N   0  0  0  0  0  0  0  0  0  0  0  0
    3.7500    3.8971    0.0000 C   0  0  0  0  0  0  0  0  0  0  0  0
    5.2500    3.8971    0.0000 C   0  0  0  0  0  0  0  0  0  0  0  0
    6.0000    5.1962    0.0000 C   0  0  0  0  0  0  0  0  0  0  0  0
    7.5000    5.1962    0.0000 C   0  0  0  0  0  0  0  0  0  0  0  0
    8.2500    6.4952    0.0000 C   0  0  0  0  0  0  0  0  0  0  0  0
    7.5000    7.7942    0.0000 C   0  0  0  0  0  0  0  0  0  0  0  0
    8.2500    9.0933    0.0000 S   0  0  0  0  0  0  0  0  0  0  0  0
    9.5490    8.3433    0.0000 O   0  0  0  0  0  0  0  0  0  0  0  0
    6.9510    9.8433    0.0000 O   0  0  0  0  0  0  0  0  0  0  0  0
    9.0000   10.3923    0.0000 N   0  0  0  0  0  0  0  0  0  0  0  0
    8.2500   11.6913    0.0000 C   0  0  0  0  0  0  0  0  0  0  0  0
    6.7500   11.6913    0.0000 O   0  0  0  0  0  0  0  0  0  0  0  0
    9.0000   12.9904    0.0000 N   0  0  0  0  0  0  0  0  0  0  0  0
    8.2500   14.2894    0.0000 C   0  0  0  0  0  0  0  0  0  0  0  0
    9.0000   15.5885    0.0000 C   0  0  0  0  0  0  0  0  0  0  0  0
    8.2500   16.8875    0.0000 C   0  0  0  0  0  0  0  0  0  0  0  0
    6.7500   16.8875    0.0000 C   0  0  0  0  0  0  0  0  0  0  0  0
    6.0000   15.5885    0.0000 C   0  0  0  0  0  0  0  0  0  0  0  0
    6.7500   14.2894    0.0000 C   0  0  0  0  0  0  0  0  0  0  0  0
    6.0000    7.7942    0.0000 C   0  0  0  0  0  0  0  0  0  0  0  0
    5.2500    6.4952    0.0000 C   0  0  0  0  0  0  0  0  0  0  0  0
  1  2  1  0
  2  3  1  0
  3  4  2  0
  4  5  1  0
  5  6  2  0
  6  7  1  0
  6  8  1  0
  8  9  2  0
  9 10  1  0
 10 11  2  0
 10 12  1  0
 12 13  1  0
 13 14  1  0
 14 15  1  0
 15 16  2  0
 16 17  1  0
 17 18  2  0
 18 19  1  0
 19 20  2  0
 19 21  2  0
 19 22  1  0
 22 23  1  0
 23 24  2  0
 23 25  1  0
 25 26  1  0
 26 27  1  0
 27 28  1  0
 28 29  1  0
 29 30  1  0
 30 31  1  0
 18 32  1  0
 32 33  2  0
  9  3  1  0
 33 15  1  0
 31 26  1  0
M  END
>  <assay_description>  (15) 
Inhibition of human BSEP expressed in plasma membrane vesicles of Sf21 cells assessed as inhibition of ATP-dependent [3H]taurocholate uptake

>  <molecule_pref_name>  (15) 
GLYBURIDE

>  <canonical_smiles>  (15) 
COc1ccc(Cl)cc1C(=O)NCCc1ccc(S(=O)(=O)NC(=O)NC2CCCCC2)cc1

>  <pchembl_value>  (15) 
5.28

>  <standard_type>  (15) 
IC50

>  <standard_relation>  (15) 
=

>  <standard_value>  (15) 
5300.0

>  <standard_units>  (15) 
nM

>  <target_pref_name>  (15) 
Bile salt export pump

>  <target_organism>  (15) 
Homo sapiens

$$$$
CHEMBL374975
     RDKit          2D

 37 40  0  0  0  0  0  0  0  0999 V2000
   -0.9510    8.6563    0.0000 C   0  0  0  0  0  0  0  0  0  0  0  0
   -0.9510    7.1563    0.0000 C   0  0  0  0  0  0  0  0  0  0  0  0
    0.3481    6.4063    0.0000 O   0  0  0  0  0  0  0  0  0  0  0  0
   -2.2500    6.4063    0.0000 O   0  0  0  0  0  0  0  0  0  0  0  0
   -2.2500    4.9063    0.0000 C   0  0  0  0  0  0  0  0  0  0  0  0
   -1.0365    4.0247    0.0000 C   0  0  0  0  0  0  0  0  0  0  0  0
   -1.5000    2.5981    0.0000 C   0  0  0  0  0  0  0  0  0  0  0  0
   -0.4345    2.8441    0.0000 C   0  0  0  0  0  0  0  0  0  0  0  0
   -3.0000    2.5981    0.0000 C   0  0  0  0  0  0  0  0  0  0  0  0
   -3.7500    1.2990    0.0000 C   0  0  0  0  0  0  0  0  0  0  0  0
   -3.0000    0.0000    0.0000 C   0  0  0  0  0  0  0  0  0  0  0  0
   -3.7500   -1.2990    0.0000 O   0  0  0  0  0  0  0  0  0  0  0  0
   -1.5000    0.0000    0.0000 C   0  0  0  0  0  0  0  0  0  0  0  0
   -0.7500   -1.2990    0.0000 C   0  0  0  0  0  0  0  0  0  0  0  0
   -2.2500   -1.2990    0.0000 C   0  0  0  0  0  0  0  0  0  0  0  0
   -1.5000   -2.5981    0.0000 C   0  0  0  0  0  0  0  0  0  0  0  0
   -0.7500   -3.8971    0.0000 C   0  0  0  0  0  0  0  0  0  0  0  0
    0.7500   -3.8971    0.0000 C   0  0  0  0  0  0  0  0  0  0  0  0
    1.5000   -5.1962    0.0000 O   0  0  0  0  0  0  0  0  0  0  0  0
    1.5000   -2.5981    0.0000 C   0  0  0  0  0  0  0  0  0  0  0  0
    3.0000   -2.5981    0.0000 C   0  0  0  0  0  0  0  0  0  0  0  0
    0.7500   -1.2990    0.0000 C   0  0  0  0  0  0  0  0  0  0  0  0
    1.5000    0.0000    0.0000 C   0  0  0  0  0  0  0  0  0  0  0  0
    0.7500    1.2990    0.0000 C   0  0  0  0  0  0  0  0  0  0  0  0
   -0.7500    1.2990    0.0000 C   0  0  0  0  0  0  0  0  0  0  0  0
   -0.0919    2.1723    0.0000 C   0  0  0  0  0  0  0  0  0  0  0  0
   -3.4635    4.0247    0.0000 C   0  0  0  0  0  0  0  0  0  0  0  0
   -4.8901    4.4882    0.0000 C   0  0  0  0  0  0  0  0  0  0  0  0
   -6.0048    3.4845    0.0000 C   0  0  0  0  0  0  0  0  0  0  0  0
   -7.4314    3.9480    0.0000 C   0  0  0  0  0  0  0  0  0  0  0  0
   -8.5461    2.9443    0.0000 C   0  0  0  0  0  0  0  0  0  0  0  0
   -9.9727    3.4078    0.0000 C   0  0  0  0  0  0  0  0  0  0  0  0
  -11.0874    2.4041    0.0000 C   0  0  0  0  0  0  0  0  0  0  0  0
  -10.2846    4.8751    0.0000 C   0  0  0  0  0  0  0  0  0  0  0  0
   -5.2020    5.9554    0.0000 C   0  0  0  0  0  0  0  0  0  0  0  0
   -4.0873    6.9591    0.0000 O   0  0  0  0  0  0  0  0  0  0  0  0
   -6.6286    6.4189    0.0000 O   0  0  0  0  0  0  0  0  0  0  0  0
  1  2  1  0
  2  3  2  0
  2  4  1  0
  5  4  1  1
  5  6  1  0
  6  7  1  0
  7  8  1  1
  7  9  1  0
  9 10  1  1
 10 11  1  0
 11 12  1  6
 13 11  1  6
 13 14  1  0
 14 15  1  1
 14 16  1  0
 16 17  1  0
 17 18  1  0
 18 19  1  6
 18 20  1  0
 20 21  1  6
 20 22  1  0
 22 23  1  1
 23 24  1  0
 24 25  1  0
 25 26  1  6
  9 27  1  0
 27 28  2  0
 28 29  1  0
 29 30  1  0
 30 31  1  0
 31 32  2  3
 32 33  1  0
 32 34  1  0
 28 35  1  0
 35 36  2  0
 35 37  1  0
 27  5  1  0
 25  7  1  0
 25 13  1  0
 22 14  1  0
M  END
>  <assay_description>  (16) 
Inhibition of human BSEP expressed in plasma membrane vesicles of Sf21 cells assessed as inhibition of ATP-dependent [3H]taurocholate uptake

>  <molecule_pref_name>  (16) 
FUSIDIC ACID

>  <canonical_smiles>  (16) 
CC(=O)O[C@H]1C[C@@]2(C)[C@@H](C[C@@H](O)[C@H]3[C@@]4(C)CC[C@@H](O)[C@@H](C)[C@@H]4CC[C@@]32C)/C1=C(\CCC=C(C)C)C(=O)O

>  <pchembl_value>  (16) 
4.94

>  <standard_type>  (16) 
IC50

>  <standard_relation>  (16) 
=

>  <standard_value>  (16) 
11500.0

>  <standard_units>  (16) 
nM

>  <target_pref_name>  (16) 
Bile salt export pump

>  <target_organism>  (16) 
Homo sapiens

$$$$
CHEMBL2218877
     RDKit          2D

 72 73  0  0  0  0  0  0  0  0999 V2000
   -1.9207   -4.8423    0.0000 C   0  0  0  0  0  0  0  0  0  0  0  0
   -0.6814   -3.9973    0.0000 C   0  0  0  0  0  0  0  0  0  0  0  0
    0.6701   -4.6482    0.0000 C   0  0  0  0  0  0  0  0  0  0  0  0
    0.5990   -6.1465    0.0000 O   0  0  0  0  0  0  0  0  0  0  0  0
    1.9094   -3.8032    0.0000 O   0  0  0  0  0  0  0  0  0  0  0  0
    3.2609   -4.4540    0.0000 C   0  0  0  0  0  0  0  0  0  0  0  0
    4.5002   -3.6090    0.0000 C   0  0  0  0  0  0  0  0  0  0  0  0
    4.3881   -2.1132    0.0000 O   0  0  0  0  0  0  0  0  0  0  0  0
    3.0367   -1.4624    0.0000 C   0  0  0  0  0  0  0  0  0  0  0  0
    3.3705    0.0000    0.0000 C   0  0  0  0  0  0  0  0  0  0  0  0
    4.8705    0.0000    0.0000 C   0  0  0  0  0  0  0  0  0  0  0  0
    3.0367    1.4624    0.0000 C   0  0  0  0  0  0  0  0  0  0  0  0
    4.3881    2.1132    0.0000 O   0  0  0  0  0  0  0  0  0  0  0  0
    4.5002    3.6090    0.0000 C   0  0  0  0  0  0  0  0  0  0  0  0
    5.8517    4.2598    0.0000 C   0  0  0  0  0  0  0  0  0  0  0  0
    5.9638    5.7557    0.0000 C   0  0  0  0  0  0  0  0  0  0  0  0
    6.5807    7.1229    0.0000 C   0  0  0  0  0  0  0  0  0  0  0  0
    7.4174    5.3855    0.0000 O   0  0  0  0  0  0  0  0  0  0  0  0
    8.4648    6.4593    0.0000 C   0  0  0  0  0  0  0  0  0  0  0  0
    4.7244    6.6006    0.0000 C   0  0  0  0  0  0  0  0  0  0  0  0
    4.8365    8.0964    0.0000 O   0  0  0  0  0  0  0  0  0  0  0  0
    3.3730    5.9498    0.0000 C   0  0  0  0  0  0  0  0  0  0  0  0
    2.1336    6.7948    0.0000 C   0  0  0  0  0  0  0  0  0  0  0  0
    3.2609    4.4540    0.0000 O   0  0  0  0  0  0  0  0  0  0  0  0
    2.1015    2.6351    0.0000 C   0  0  0  0  0  0  0  0  0  0  0  0
    2.6628    3.8629    0.0000 C   0  0  0  0  0  0  0  0  0  0  0  0
    0.7500    3.2860    0.0000 C   0  0  0  0  0  0  0  0  0  0  0  0
    1.0838    4.7484    0.0000 O   0  0  0  0  0  0  0  0  0  0  0  0
   -0.7500    3.2860    0.0000 O   0  0  0  0  0  0  0  0  0  0  0  0
   -2.1015    2.6351    0.0000 C   0  0  0  0  0  0  0  0  0  0  0  0
   -3.0367    3.8079    0.0000 C   0  0  0  0  0  0  0  0  0  0  0  0
   -2.4887    5.2042    0.0000 C   0  0  0  0  0  0  0  0  0  0  0  0
   -3.0367    1.4624    0.0000 C   0  0  0  0  0  0  0  0  0  0  0  0
   -4.5199    1.2388    0.0000 C   0  0  0  0  0  0  0  0  0  0  0  0
   -3.7867    2.7614    0.0000 O   0  0  0  0  0  0  0  0  0  0  0  0
   -3.3705    0.0000    0.0000 C   0  0  0  0  0  0  0  0  0  0  0  0
   -4.8705    0.0000    0.0000 O   0  0  0  0  0  0  0  0  0  0  0  0
   -3.0367   -1.4624    0.0000 C   0  0  0  0  0  0  0  0  0  0  0  0
   -4.3881   -2.1132    0.0000 C   0  0  0  0  0  0  0  0  0  0  0  0
   -2.1015   -2.6351    0.0000 C   0  0  0  0  0  0  0  0  0  0  0  0
   -3.0367   -3.8079    0.0000 O   0  0  0  0  0  0  0  0  0  0  0  0
   -0.7500   -3.2860    0.0000 C   0  0  0  0  0  0  0  0  0  0  0  0
   -1.0838   -4.7484    0.0000 C   0  0  0  0  0  0  0  0  0  0  0  0
    0.7500   -3.2860    0.0000 C   0  0  0  0  0  0  0  0  0  0  0  0
    2.1015   -2.6351    0.0000 C   0  0  0  0  0  0  0  0  0  0  0  0
    3.5348   -3.0773    0.0000 C   0  0  0  0  0  0  0  0  0  0  0  0
    1.9669   -3.4209    0.0000 O   0  0  0  0  0  0  0  0  0  0  0  0
    5.8517   -4.2598    0.0000 O   0  0  0  0  0  0  0  0  0  0  0  0
    5.9638   -5.7557    0.0000 C   0  0  0  0  0  0  0  0  0  0  0  0
    7.3152   -6.4065    0.0000 C   0  0  0  0  0  0  0  0  0  0  0  0
    4.7244   -6.6006    0.0000 C   0  0  0  0  0  0  0  0  0  0  0  0
    3.3730   -5.9498    0.0000 C   0  0  0  0  0  0  0  0  0  0  0  0
    2.1336   -6.7948    0.0000 N   0  0  0  0  0  0  0  0  0  0  0  0
    2.2457   -8.2906    0.0000 C   0  0  0  0  0  0  0  0  0  0  0  0
    0.7129   -6.3136    0.0000 C   0  0  0  0  0  0  0  0  0  0  0  0
    9.4648    0.0000    0.0000 C   0  0  0  0  0  0  0  0  0  0  0  0
   10.7638    0.7500    0.0000 C   0  0  0  0  0  0  0  0  0  0  0  0
   12.0628   -0.0000    0.0000 C   0  0  0  0  0  0  0  0  0  0  0  0
   13.3619    0.7500    0.0000 C   0  0  0  0  0  0  0  0  0  0  0  0
   14.6609   -0.0000    0.0000 C   0  0  0  0  0  0  0  0  0  0  0  0
   15.9599    0.7500    0.0000 C   0  0  0  0  0  0  0  0  0  0  0  0
   17.2590   -0.0000    0.0000 C   0  0  0  0  0  0  0  0  0  0  0  0
   18.5580    0.7500    0.0000 C   0  0  0  0  0  0  0  0  0  0  0  0
   19.8571   -0.0000    0.0000 C   0  0  0  0  0  0  0  0  0  0  0  0
   21.1561    0.7500    0.0000 C   0  0  0  0  0  0  0  0  0  0  0  0
   22.4551   -0.0000    0.0000 C   0  0  0  0  0  0  0  0  0  0  0  0
   23.7542    0.7500    0.0000 C   0  0  0  0  0  0  0  0  0  0  0  0
   25.0532   -0.0000    0.0000 O   0  0  0  0  0  0  0  0  0  0  0  0
   26.3523    0.7500    0.0000 S   0  0  0  0  0  0  0  0  0  0  0  0
   25.6023    2.0490    0.0000 O   0  0  0  0  0  0  0  0  0  0  0  0
   27.1023   -0.5490    0.0000 O   0  0  0  0  0  0  0  0  0  0  0  0
   27.6513    1.5000    0.0000 O   0  0  0  0  0  0  0  0  0  0  0  0
  1  2  1  0
  2  3  1  0
  3  4  2  0
  3  5  1  0
  6  5  1  1
  6  7  1  0
  7  8  1  6
  9  8  1  1
  9 10  1  0
 10 11  1  6
 10 12  1  0
 12 13  1  1
 14 13  1  6
 14 15  1  0
 15 16  1  0
 16 17  1  1
 16 18  1  0
 18 19  1  0
 16 20  1  0
 20 21  1  6
 20 22  1  0
 22 23  1  1
 22 24  1  0
 12 25  1  0
 25 26  1  6
 25 27  1  0
 27 28  2  0
 27 29  1  0
 29 30  1  0
 30 31  1  1
 31 32  1  0
 30 33  1  0
 33 34  1  1
 33 35  1  0
 33 36  1  0
 36 37  1  1
 36 38  1  0
 38 39  1  6
 38 40  1  0
 40 41  2  0
 40 42  1  0
 42 43  1  1
 42 44  1  0
 44 45  1  0
 45 46  1  1
 45 47  1  0
  7 48  1  0
 48 49  1  0
 49 50  1  6
 49 51  1  0
 51 52  1  0
 52 53  1  6
 53 54  1  0
 53 55  1  0
 56 57  1  0
 57 58  1  0
 58 59  1  0
 59 60  1  0
 60 61  1  0
 61 62  1  0
 62 63  1  0
 63 64  1  0
 64 65  1  0
 65 66  1  0
 66 67  1  0
 67 68  1  0
 68 69  1  0
 69 70  2  0
 69 71  2  0
 69 72  1  0
 52  6  1  0
 45  9  1  0
 24 14  1  0
M  END
>  <assay_description>  (17) 
Inhibition of human BSEP expressed in plasma membrane vesicles of Sf21 cells assessed as inhibition of ATP-dependent [3H]taurocholate uptake

>  <molecule_pref_name>  (17) 
ERYTHROMYCIN ESTOLATE

>  <canonical_smiles>  (17) 
CCC(=O)O[C@H]1[C@H](O[C@@H]2[C@@H](C)[C@H](O[C@H]3C[C@@](C)(OC)[C@@H](O)[C@H](C)O3)[C@@H](C)C(=O)O[C@H](CC)[C@@](C)(O)[C@H](O)[C@@H](C)C(=O)[C@H](C)C[C@@]2(C)O)O[C@H](C)C[C@@H]1N(C)C.CCCCCCCCCCCCOS(=O)(=O)O

>  <pchembl_value>  (17) 
5.39

>  <standard_type>  (17) 
IC50

>  <standard_relation>  (17) 
=

>  <standard_value>  (17) 
4100.0

>  <standard_units>  (17) 
nM

>  <target_pref_name>  (17) 
Bile salt export pump

>  <target_organism>  (17) 
Homo sapiens

$$$$
CHEMBL893
     RDKit          2D

 30 33  0  0  0  0  0  0  0  0999 V2000
   -5.8185    2.8740    0.0000 C   0  0  0  0  0  0  0  0  0  0  0  0
   -5.5838    4.3555    0.0000 C   0  0  0  0  0  0  0  0  0  0  0  0
   -6.6445    5.4162    0.0000 O   0  0  0  0  0  0  0  0  0  0  0  0
   -5.9635    6.7527    0.0000 N   0  0  0  0  0  0  0  0  0  0  0  0
   -4.4820    6.5180    0.0000 C   0  0  0  0  0  0  0  0  0  0  0  0
   -3.4213    7.5787    0.0000 C   0  0  0  0  0  0  0  0  0  0  0  0
   -3.8096    9.0276    0.0000 C   0  0  0  0  0  0  0  0  0  0  0  0
   -5.2584    9.4158    0.0000 Cl  0  0  0  0  0  0  0  0  0  0  0  0
   -2.7489   10.0882    0.0000 C   0  0  0  0  0  0  0  0  0  0  0  0
   -1.3000    9.7000    0.0000 C   0  0  0  0  0  0  0  0  0  0  0  0
   -0.9118    8.2511    0.0000 C   0  0  0  0  0  0  0  0  0  0  0  0
   -1.9724    7.1905    0.0000 C   0  0  0  0  0  0  0  0  0  0  0  0
   -1.4667    5.9388    0.0000 Cl  0  0  0  0  0  0  0  0  0  0  0  0
   -4.2473    5.0365    0.0000 C   0  0  0  0  0  0  0  0  0  0  0  0
   -2.9108    4.3555    0.0000 C   0  0  0  0  0  0  0  0  0  0  0  0
   -1.6974    4.9473    0.0000 O   0  0  0  0  0  0  0  0  0  0  0  0
   -2.8323    2.8576    0.0000 N   0  0  0  0  0  0  0  0  0  0  0  0
   -1.4958    2.1766    0.0000 C   0  0  0  0  0  0  0  0  0  0  0  0
   -0.0692    2.6401    0.0000 C   0  0  0  0  0  0  0  0  0  0  0  0
    0.6118    3.9766    0.0000 O   0  0  0  0  0  0  0  0  0  0  0  0
    0.3943    1.2135    0.0000 N   0  0  0  0  0  0  0  0  0  0  0  0
    1.2760    0.0000    0.0000 C   0  0  0  0  0  0  0  0  0  0  0  0
    2.7760    0.0000    0.0000 C   0  0  0  0  0  0  0  0  0  0  0  0
    3.5260    1.2990    0.0000 O   0  0  0  0  0  0  0  0  0  0  0  0
    3.5260   -1.2990    0.0000 O   0  0  0  0  0  0  0  0  0  0  0  0
    0.3943   -1.2135    0.0000 C   0  0  0  0  0  0  0  0  0  0  0  0
    1.6933   -1.9635    0.0000 C   0  0  0  0  0  0  0  0  0  0  0  0
   -0.2158   -2.5838    0.0000 C   0  0  0  0  0  0  0  0  0  0  0  0
   -1.0323   -0.7500    0.0000 S   0  0  0  0  0  0  0  0  0  0  0  0
   -1.0323    0.7500    0.0000 C   0  0  0  0  0  0  0  0  0  0  0  0
  1  2  1  0
  2  3  1  0
  3  4  1  0
  4  5  2  0
  5  6  1  0
  6  7  2  0
  7  8  1  0
  7  9  1  0
  9 10  2  0
 10 11  1  0
 11 12  2  0
 12 13  1  0
  5 14  1  0
 14 15  1  0
 15 16  2  0
 15 17  1  0
 18 17  1  6
 18 19  1  0
 19 20  2  0
 19 21  1  0
 21 22  1  0
 22 23  1  1
 23 24  2  0
 23 25  1  0
 22 26  1  0
 26 27  1  0
 26 28  1  0
 26 29  1  0
 30 29  1  6
 14  2  2  0
 30 18  1  0
 12  6  1  0
 30 21  1  0
M  END
>  <assay_description>  (18) 
Inhibition of human BSEP expressed in plasma membrane vesicles of Sf21 cells assessed as inhibition of ATP-dependent [3H]taurocholate uptake

>  <molecule_pref_name>  (18) 
DICLOXACILLIN

>  <canonical_smiles>  (18) 
Cc1onc(-c2c(Cl)cccc2Cl)c1C(=O)N[C@@H]1C(=O)N2[C@@H](C(=O)O)C(C)(C)S[C@H]12

>  <pchembl_value>  (18) 
4.16

>  <standard_type>  (18) 
IC50

>  <standard_relation>  (18) 
=

>  <standard_value>  (18) 
69700.0

>  <standard_units>  (18) 
nM

>  <target_pref_name>  (18) 
Bile salt export pump

>  <target_organism>  (18) 
Homo sapiens

$$$$
CHEMBL957
     RDKit          2D

 39 42  0  0  0  0  0  0  0  0999 V2000
    3.7500   -1.2990    0.0000 C   0  0  0  0  0  0  0  0  0  0  0  0
    3.0000    0.0000    0.0000 O   0  0  0  0  0  0  0  0  0  0  0  0
    1.5000    0.0000    0.0000 C   0  0  0  0  0  0  0  0  0  0  0  0
    0.7500   -1.2990    0.0000 C   0  0  0  0  0  0  0  0  0  0  0  0
   -0.7500   -1.2990    0.0000 C   0  0  0  0  0  0  0  0  0  0  0  0
   -1.5000    0.0000    0.0000 C   0  0  0  0  0  0  0  0  0  0  0  0
   -0.7500    1.2990    0.0000 C   0  0  0  0  0  0  0  0  0  0  0  0
    0.7500    1.2990    0.0000 C   0  0  0  0  0  0  0  0  0  0  0  0
    1.5000    2.5981    0.0000 O   0  0  0  0  0  0  0  0  0  0  0  0
    0.7500    3.8971    0.0000 C   0  0  0  0  0  0  0  0  0  0  0  0
    1.5000    5.1962    0.0000 C   0  0  0  0  0  0  0  0  0  0  0  0
    3.0000    5.1962    0.0000 N   0  0  0  0  0  0  0  0  0  0  0  0
    3.7500    6.4952    0.0000 S   0  0  0  0  0  0  0  0  0  0  0  0
    2.4510    7.2452    0.0000 O   0  0  0  0  0  0  0  0  0  0  0  0
    5.0490    5.7452    0.0000 O   0  0  0  0  0  0  0  0  0  0  0  0
    4.5000    7.7942    0.0000 C   0  0  0  0  0  0  0  0  0  0  0  0
    6.0000    7.7942    0.0000 C   0  0  0  0  0  0  0  0  0  0  0  0
    6.7500    9.0933    0.0000 C   0  0  0  0  0  0  0  0  0  0  0  0
    6.0000   10.3923    0.0000 C   0  0  0  0  0  0  0  0  0  0  0  0
    6.7500   11.6913    0.0000 C   0  0  0  0  0  0  0  0  0  0  0  0
    8.0490   10.9413    0.0000 C   0  0  0  0  0  0  0  0  0  0  0  0
    5.4510   12.4413    0.0000 C   0  0  0  0  0  0  0  0  0  0  0  0
    7.5000   12.9904    0.0000 C   0  0  0  0  0  0  0  0  0  0  0  0
    4.5000   10.3923    0.0000 C   0  0  0  0  0  0  0  0  0  0  0  0
    3.7500    9.0933    0.0000 C   0  0  0  0  0  0  0  0  0  0  0  0
    0.7500    6.4952    0.0000 N   0  0  0  0  0  0  0  0  0  0  0  0
   -0.7500    6.4952    0.0000 C   0  0  0  0  0  0  0  0  0  0  0  0
   -1.5000    7.7942    0.0000 C   0  0  0  0  0  0  0  0  0  0  0  0
   -0.7500    9.0933    0.0000 N   0  0  0  0  0  0  0  0  0  0  0  0
   -1.5000   10.3923    0.0000 C   0  0  0  0  0  0  0  0  0  0  0  0
   -3.0000   10.3923    0.0000 C   0  0  0  0  0  0  0  0  0  0  0  0
   -3.7500    9.0933    0.0000 C   0  0  0  0  0  0  0  0  0  0  0  0
   -3.0000    7.7942    0.0000 N   0  0  0  0  0  0  0  0  0  0  0  0
   -1.5000    5.1962    0.0000 N   0  0  0  0  0  0  0  0  0  0  0  0
   -0.7500    3.8971    0.0000 C   0  0  0  0  0  0  0  0  0  0  0  0
   -1.5000    2.5981    0.0000 O   0  0  0  0  0  0  0  0  0  0  0  0
   -3.0000    2.5981    0.0000 C   0  0  0  0  0  0  0  0  0  0  0  0
   -3.7500    1.2990    0.0000 C   0  0  0  0  0  0  0  0  0  0  0  0
   -5.2500    1.2990    0.0000 O   0  0  0  0  0  0  0  0  0  0  0  0
  1  2  1  0
  2  3  1  0
  3  4  2  0
  4  5  1  0
  5  6  2  0
  6  7  1  0
  7  8  2  0
  8  9  1  0
  9 10  1  0
 10 11  1  0
 11 12  1  0
 12 13  1  0
 13 14  2  0
 13 15  2  0
 13 16  1  0
 16 17  2  0
 17 18  1  0
 18 19  2  0
 19 20  1  0
 20 21  1  0
 20 22  1  0
 20 23  1  0
 19 24  1  0
 24 25  2  0
 11 26  2  0
 26 27  1  0
 27 28  1  0
 28 29  2  0
 29 30  1  0
 30 31  2  0
 31 32  1  0
 32 33  2  0
 27 34  2  0
 34 35  1  0
 35 36  1  0
 36 37  1  0
 37 38  1  0
 38 39  1  0
  8  3  1  0
 35 10  2  0
 25 16  1  0
 33 28  1  0
M  END
>  <assay_description>  (19) 
Inhibition of human BSEP expressed in plasma membrane vesicles of Sf21 cells assessed as inhibition of ATP-dependent [3H]taurocholate uptake

>  <molecule_pref_name>  (19) 
BOSENTAN

>  <canonical_smiles>  (19) 
COc1ccccc1Oc1c(NS(=O)(=O)c2ccc(C(C)(C)C)cc2)nc(-c2ncccn2)nc1OCCO

>  <pchembl_value>  (19) 
4.42

>  <standard_type>  (19) 
IC50

>  <standard_relation>  (19) 
=

>  <standard_value>  (19) 
38100.0

>  <standard_units>  (19) 
nM

>  <target_pref_name>  (19) 
Bile salt export pump

>  <target_organism>  (19) 
Homo sapiens

$$$$
CHEMBL1131
     RDKit          2D

 24 24  0  0  0  0  0  0  0  0999 V2000
    3.7500   -1.2990    0.0000 C   0  0  0  0  0  0  0  0  0  0  0  0
    3.0000    0.0000    0.0000 O   0  0  0  0  0  0  0  0  0  0  0  0
    1.5000    0.0000    0.0000 C   0  0  0  0  0  0  0  0  0  0  0  0
    0.7500   -1.2990    0.0000 C   0  0  0  0  0  0  0  0  0  0  0  0
   -0.7500   -1.2990    0.0000 C   0  0  0  0  0  0  0  0  0  0  0  0
   -1.5000   -2.5981    0.0000 C   0  0  0  0  0  0  0  0  0  0  0  0
   -1.5000    0.0000    0.0000 C   0  0  0  0  0  0  0  0  0  0  0  0
   -3.0000    0.0000    0.0000 C   0  0  0  0  0  0  0  0  0  0  0  0
   -3.7500    1.2990    0.0000 C   0  0  0  0  0  0  0  0  0  0  0  0
   -5.2500    1.2990    0.0000 C   0  0  0  0  0  0  0  0  0  0  0  0
   -6.0000    0.0000    0.0000 C   0  0  0  0  0  0  0  0  0  0  0  0
   -6.0000    2.5981    0.0000 C   0  0  0  0  0  0  0  0  0  0  0  0
   -7.5000    2.5981    0.0000 C   0  0  0  0  0  0  0  0  0  0  0  0
   -8.2500    3.8971    0.0000 C   0  0  0  0  0  0  0  0  0  0  0  0
   -9.7500    3.8971    0.0000 C   0  0  0  0  0  0  0  0  0  0  0  0
  -10.5000    2.5981    0.0000 C   0  0  0  0  0  0  0  0  0  0  0  0
  -10.5000    5.1962    0.0000 C   0  0  0  0  0  0  0  0  0  0  0  0
  -12.0000    5.1962    0.0000 C   0  0  0  0  0  0  0  0  0  0  0  0
  -12.7500    3.8971    0.0000 O   0  0  0  0  0  0  0  0  0  0  0  0
  -12.7500    6.4952    0.0000 O   0  0  0  0  0  0  0  0  0  0  0  0
   -0.7500    1.2990    0.0000 C   0  0  0  0  0  0  0  0  0  0  0  0
   -1.5000    2.5981    0.0000 C   0  0  0  0  0  0  0  0  0  0  0  0
    0.7500    1.2990    0.0000 C   0  0  0  0  0  0  0  0  0  0  0  0
    1.5000    2.5981    0.0000 C   0  0  0  0  0  0  0  0  0  0  0  0
  1  2  1  0
  2  3  1  0
  3  4  2  0
  4  5  1  0
  5  6  1  0
  5  7  2  0
  7  8  1  0
  8  9  2  0
  9 10  1  0
 10 11  1  0
 10 12  2  0
 12 13  1  0
 13 14  2  0
 14 15  1  0
 15 16  1  0
 15 17  2  0
 17 18  1  0
 18 19  2  0
 18 20  1  0
  7 21  1  0
 21 22  1  0
 21 23  2  0
 23 24  1  0
 23  3  1  0
M  END
>  <assay_description>  (20) 
Inhibition of human BSEP expressed in plasma membrane vesicles of Sf21 cells assessed as inhibition of ATP-dependent [3H]taurocholate uptake

>  <molecule_pref_name>  (20) 
ACITRETIN

>  <canonical_smiles>  (20) 
COc1cc(C)c(/C=C/C(C)=C/C=C/C(C)=C/C(=O)O)c(C)c1C

>  <pchembl_value>  (20) 
4.74

>  <standard_type>  (20) 
IC50

>  <standard_relation>  (20) 
=

>  <standard_value>  (20) 
18200.0

>  <standard_units>  (20) 
nM

>  <target_pref_name>  (20) 
Bile salt export pump

>  <target_organism>  (20) 
Homo sapiens

$$$$
CHEMBL1231206
     RDKit          2D

 27 31  0  0  0  0  0  0  0  0999 V2000
    3.7500   -6.4952    0.0000 C   0  0  0  0  0  0  0  0  0  0  0  0
    3.0000   -5.1962    0.0000 C   0  0  0  0  0  0  0  0  0  0  0  0
    1.5000   -5.1962    0.0000 C   0  0  0  0  0  0  0  0  0  0  0  0
    0.7500   -3.8971    0.0000 C   0  0  0  0  0  0  0  0  0  0  0  0
    1.5000   -2.5981    0.0000 C   0  0  0  0  0  0  0  0  0  0  0  0
    0.7500   -1.2990    0.0000 C   0  0  0  0  0  0  0  0  0  0  0  0
    1.5000    0.0000    0.0000 C   0  0  0  0  0  0  0  0  0  0  0  0
    0.7500    1.2990    0.0000 C   0  0  0  0  0  0  0  0  0  0  0  0
   -0.7500    1.2990    0.0000 C   0  0  0  0  0  0  0  0  0  0  0  0
   -1.5000    0.0000    0.0000 C   0  0  0  0  0  0  0  0  0  0  0  0
   -3.0000    0.0000    0.0000 C   0  0  0  0  0  0  0  0  0  0  0  0
   -3.7500    1.2990    0.0000 C   0  0  0  0  0  0  0  0  0  0  0  0
   -3.0000    2.5981    0.0000 C   0  0  0  0  0  0  0  0  0  0  0  0
   -3.4635    4.0247    0.0000 S   0  0  0  0  0  0  0  0  0  0  0  0
   -2.2500    4.9063    0.0000 C   0  0  0  0  0  0  0  0  0  0  0  0
   -1.0365    4.0247    0.0000 C   0  0  0  0  0  0  0  0  0  0  0  0
   -1.5000    2.5981    0.0000 C   0  0  0  0  0  0  0  0  0  0  0  0
    0.4095    4.4237    0.0000 N   0  0  0  0  0  0  0  0  0  0  0  0
    0.9990    5.8030    0.0000 C   0  0  0  0  0  0  0  0  0  0  0  0
    0.2882    7.1239    0.0000 C   0  0  0  0  0  0  0  0  0  0  0  0
    1.1699    8.3374    0.0000 C   0  0  0  0  0  0  0  0  0  0  0  0
   -1.1877    7.3917    0.0000 N   0  0  0  0  0  0  0  0  0  0  0  0
   -2.3173    6.4048    0.0000 C   0  0  0  0  0  0  0  0  0  0  0  0
   -3.6966    6.9944    0.0000 O   0  0  0  0  0  0  0  0  0  0  0  0
   -0.7500   -1.2990    0.0000 N   0  0  0  0  0  0  0  0  0  0  0  0
    3.0000   -2.5981    0.0000 C   0  0  0  0  0  0  0  0  0  0  0  0
    3.7500   -3.8971    0.0000 N   0  0  0  0  0  0  0  0  0  0  0  0
  1  2  1  0
  2  3  2  0
  3  4  1  0
  4  5  2  0
  5  6  1  0
  6  7  2  0
  7  8  1  0
  8  9  2  0
  9 10  1  0
 10 11  1  0
 11 12  2  0
 12 13  1  0
 13 14  1  0
 14 15  1  0
 15 16  2  0
 16 17  1  0
 16 18  1  0
 18 19  1  0
 19 20  1  0
 20 21  1  6
 20 22  1  0
 22 23  1  0
 23 24  2  0
 10 25  2  0
  5 26  1  0
 26 27  2  0
 27  2  1  0
 25  6  1  0
 17  9  1  0
 17 13  2  0
 23 15  1  0
M  END
>  <assay_description>  (21) 
Inhibition of human BSEP expressed in recombinant baculovirus infected insect Sf9 cell membrane vesicles assessed as [3H]-taurocholate transport preincubated for 5 mins followed by ATP or AMP addition measured after 5 mins by scintillation counting method

>  <molecule_pref_name>  (21) 
None

>  <canonical_smiles>  (21) 
Cc1ccc(-c2ccc3c(ccc4sc5c(c43)NC[C@@H](C)NC5=O)n2)cn1

>  <pchembl_value>  (21) 
5.16

>  <standard_type>  (21) 
IC50

>  <standard_relation>  (21) 
=

>  <standard_value>  (21) 
7000.0

>  <standard_units>  (21) 
nM

>  <target_pref_name>  (21) 
Bile salt export pump

>  <target_organism>  (21) 
Homo sapiens

$$$$
CHEMBL3808630
     RDKit          2D

 32 36  0  0  0  0  0  0  0  0999 V2000
   10.5000   -7.7942    0.0000 C   0  0  0  0  0  0  0  0  0  0  0  0
    9.7500   -6.4952    0.0000 O   0  0  0  0  0  0  0  0  0  0  0  0
    8.2500   -6.4952    0.0000 C   0  0  0  0  0  0  0  0  0  0  0  0
    7.5000   -5.1962    0.0000 C   0  0  0  0  0  0  0  0  0  0  0  0
    6.0000   -5.1962    0.0000 O   0  0  0  0  0  0  0  0  0  0  0  0
    5.2500   -3.8971    0.0000 C   0  0  0  0  0  0  0  0  0  0  0  0
    3.7500   -3.8971    0.0000 C   0  0  0  0  0  0  0  0  0  0  0  0
    3.0000   -5.1962    0.0000 C   0  0  0  0  0  0  0  0  0  0  0  0
    1.5000   -5.1962    0.0000 C   0  0  0  0  0  0  0  0  0  0  0  0
    0.7500   -3.8971    0.0000 C   0  0  0  0  0  0  0  0  0  0  0  0
    1.5000   -2.5981    0.0000 C   0  0  0  0  0  0  0  0  0  0  0  0
    0.7500   -1.2990    0.0000 C   0  0  0  0  0  0  0  0  0  0  0  0
    1.5000    0.0000    0.0000 C   0  0  0  0  0  0  0  0  0  0  0  0
    0.7500    1.2990    0.0000 C   0  0  0  0  0  0  0  0  0  0  0  0
   -0.7500    1.2990    0.0000 C   0  0  0  0  0  0  0  0  0  0  0  0
   -1.5000    0.0000    0.0000 C   0  0  0  0  0  0  0  0  0  0  0  0
   -3.0000    0.0000    0.0000 C   0  0  0  0  0  0  0  0  0  0  0  0
   -3.7500    1.2990    0.0000 C   0  0  0  0  0  0  0  0  0  0  0  0
   -3.0000    2.5981    0.0000 C   0  0  0  0  0  0  0  0  0  0  0  0
   -3.4635    4.0247    0.0000 S   0  0  0  0  0  0  0  0  0  0  0  0
   -2.2500    4.9063    0.0000 C   0  0  0  0  0  0  0  0  0  0  0  0
   -1.0365    4.0247    0.0000 C   0  0  0  0  0  0  0  0  0  0  0  0
   -1.5000    2.5981    0.0000 C   0  0  0  0  0  0  0  0  0  0  0  0
    0.4095    4.4237    0.0000 N   0  0  0  0  0  0  0  0  0  0  0  0
    0.9990    5.8030    0.0000 C   0  0  0  0  0  0  0  0  0  0  0  0
    0.2882    7.1239    0.0000 C   0  0  0  0  0  0  0  0  0  0  0  0
    1.1699    8.3374    0.0000 C   0  0  0  0  0  0  0  0  0  0  0  0
   -1.1877    7.3917    0.0000 N   0  0  0  0  0  0  0  0  0  0  0  0
   -2.3173    6.4048    0.0000 C   0  0  0  0  0  0  0  0  0  0  0  0
   -3.6966    6.9944    0.0000 O   0  0  0  0  0  0  0  0  0  0  0  0
   -0.7500   -1.2990    0.0000 N   0  0  0  0  0  0  0  0  0  0  0  0
    3.0000   -2.5981    0.0000 C   0  0  0  0  0  0  0  0  0  0  0  0
  1  2  1  0
  2  3  1  0
  3  4  1  0
  4  5  1  0
  5  6  1  0
  6  7  1  0
  7  8  2  0
  8  9  1  0
  9 10  2  0
 10 11  1  0
 11 12  1  0
 12 13  2  0
 13 14  1  0
 14 15  2  0
 15 16  1  0
 16 17  1  0
 17 18  2  0
 18 19  1  0
 19 20  1  0
 20 21  1  0
 21 22  2  0
 22 23  1  0
 22 24  1  0
 24 25  1  0
 25 26  1  0
 26 27  1  6
 26 28  1  0
 28 29  1  0
 29 30  2  0
 16 31  2  0
 11 32  2  0
 32  7  1  0
 31 12  1  0
 23 15  1  0
 23 19  2  0
 29 21  1  0
M  END
>  <assay_description>  (22) 
Inhibition of human BSEP expressed in recombinant baculovirus infected insect Sf9 cell membrane vesicles assessed as [3H]-taurocholate transport preincubated for 5 mins followed by ATP or AMP addition measured after 5 mins by scintillation counting method

>  <molecule_pref_name>  (22) 
None

>  <canonical_smiles>  (22) 
COCCOCc1cccc(-c2ccc3c(ccc4sc5c(c43)NC[C@@H](C)NC5=O)n2)c1

>  <pchembl_value>  (22) 
5.16

>  <standard_type>  (22) 
IC50

>  <standard_relation>  (22) 
=

>  <standard_value>  (22) 
7000.0

>  <standard_units>  (22) 
nM

>  <target_pref_name>  (22) 
Bile salt export pump

>  <target_organism>  (22) 
Homo sapiens

$$$$
CHEMBL3819587
     RDKit          2D

 39 43  0  0  0  0  0  0  0  0999 V2000
   -0.4023   -1.5157    0.0000 C   0  0  0  0  0  0  0  0  0  0  0  0
   -0.6258   -0.0325    0.0000 O   0  0  0  0  0  0  0  0  0  0  0  0
   -2.0221    0.5156    0.0000 C   0  0  0  0  0  0  0  0  0  0  0  0
   -3.1949   -0.4197    0.0000 C   0  0  0  0  0  0  0  0  0  0  0  0
   -4.5912    0.1283    0.0000 C   0  0  0  0  0  0  0  0  0  0  0  0
   -5.7639   -0.8069    0.0000 C   0  0  0  0  0  0  0  0  0  0  0  0
   -7.1603   -0.2589    0.0000 C   0  0  0  0  0  0  0  0  0  0  0  0
   -7.3838    1.2244    0.0000 C   0  0  0  0  0  0  0  0  0  0  0  0
   -6.2111    2.1596    0.0000 O   0  0  0  0  0  0  0  0  0  0  0  0
   -8.7801    1.7724    0.0000 O   0  0  0  0  0  0  0  0  0  0  0  0
   -5.5404   -2.2901    0.0000 C   0  0  0  0  0  0  0  0  0  0  0  0
   -6.7131   -3.2254    0.0000 C   0  0  0  0  0  0  0  0  0  0  0  0
   -6.4896   -4.7086    0.0000 C   0  0  0  0  0  0  0  0  0  0  0  0
   -5.0933   -5.2566    0.0000 C   0  0  0  0  0  0  0  0  0  0  0  0
   -4.8697   -6.7399    0.0000 C   0  0  0  0  0  0  0  0  0  0  0  0
   -3.9205   -4.3214    0.0000 C   0  0  0  0  0  0  0  0  0  0  0  0
   -2.5242   -4.8694    0.0000 C   0  0  0  0  0  0  0  0  0  0  0  0
   -2.3006   -6.3527    0.0000 N   0  0  0  0  0  0  0  0  0  0  0  0
   -3.5400   -7.1976    0.0000 C   0  0  0  0  0  0  0  0  0  0  0  0
   -3.6521   -8.6934    0.0000 C   0  0  0  0  0  0  0  0  0  0  0  0
   -5.0484   -9.2415    0.0000 C   0  0  0  0  0  0  0  0  0  0  0  0
   -2.5525   -9.7137    0.0000 O   0  0  0  0  0  0  0  0  0  0  0  0
   -1.0693   -9.4901    0.0000 C   0  0  0  0  0  0  0  0  0  0  0  0
   -0.3193  -10.7892    0.0000 C   0  0  0  0  0  0  0  0  0  0  0  0
    1.1807  -10.7892    0.0000 C   0  0  0  0  0  0  0  0  0  0  0  0
    1.9307   -9.4901    0.0000 C   0  0  0  0  0  0  0  0  0  0  0  0
    1.1807   -8.1911    0.0000 C   0  0  0  0  0  0  0  0  0  0  0  0
   -0.3193   -8.1911    0.0000 C   0  0  0  0  0  0  0  0  0  0  0  0
   -0.8673   -6.7948    0.0000 S   0  0  0  0  0  0  0  0  0  0  0  0
    0.6160   -6.5712    0.0000 O   0  0  0  0  0  0  0  0  0  0  0  0
   -0.7552   -5.2990    0.0000 O   0  0  0  0  0  0  0  0  0  0  0  0
   -4.1441   -2.8382    0.0000 C   0  0  0  0  0  0  0  0  0  0  0  0
   -4.8148    1.6116    0.0000 C   0  0  0  0  0  0  0  0  0  0  0  0
   -3.6420    2.5468    0.0000 C   0  0  0  0  0  0  0  0  0  0  0  0
   -3.5523    4.0441    0.0000 N   0  0  0  0  0  0  0  0  0  0  0  0
   -2.1006    4.4215    0.0000 N   0  0  0  0  0  0  0  0  0  0  0  0
   -1.2930    3.1574    0.0000 N   0  0  0  0  0  0  0  0  0  0  0  0
    0.2043    3.0677    0.0000 C   0  0  0  0  0  0  0  0  0  0  0  0
   -2.2457    1.9988    0.0000 C   0  0  0  0  0  0  0  0  0  0  0  0
  1  2  1  0
  2  3  1  0
  3  4  2  0
  4  5  1  0
  5  6  1  0
  6  7  1  6
  7  8  1  0
  8  9  2  0
  8 10  1  0
  6 11  1  0
 11 12  2  0
 12 13  1  0
 13 14  2  0
 14 15  1  0
 14 16  1  0
 16 17  1  0
 17 18  1  0
 18 19  1  0
 19 20  1  0
 20 21  1  6
 20 22  1  0
 22 23  1  0
 23 24  2  0
 24 25  1  0
 25 26  2  0
 26 27  1  0
 27 28  2  0
 28 29  1  0
 29 30  2  0
 29 31  2  0
 16 32  2  0
  5 33  2  0
 33 34  1  0
 34 35  1  0
 35 36  2  0
 36 37  1  0
 37 38  1  0
 37 39  1  0
 39  3  1  0
 32 11  1  0
 39 34  2  0
 29 18  1  0
 28 23  1  0
M  END
>  <assay_description>  (23) 
Inhibition of BSEP (unknown origin)

>  <molecule_pref_name>  (23) 
None

>  <canonical_smiles>  (23) 
COc1cc([C@@H](CC(=O)O)c2ccc(C)c(CN3C[C@@H](C)Oc4ccccc4S3(=O)=O)c2)cc2nnn(C)c12

>  <pchembl_value>  (23) 
5.40

>  <standard_type>  (23) 
IC50

>  <standard_relation>  (23) 
=

>  <standard_value>  (23) 
4000.0

>  <standard_units>  (23) 
nM

>  <target_pref_name>  (23) 
Bile salt export pump

>  <target_organism>  (23) 
Homo sapiens

$$$$
CHEMBL957
     RDKit          2D

 39 42  0  0  0  0  0  0  0  0999 V2000
    3.7500   -1.2990    0.0000 C   0  0  0  0  0  0  0  0  0  0  0  0
    3.0000    0.0000    0.0000 O   0  0  0  0  0  0  0  0  0  0  0  0
    1.5000    0.0000    0.0000 C   0  0  0  0  0  0  0  0  0  0  0  0
    0.7500   -1.2990    0.0000 C   0  0  0  0  0  0  0  0  0  0  0  0
   -0.7500   -1.2990    0.0000 C   0  0  0  0  0  0  0  0  0  0  0  0
   -1.5000    0.0000    0.0000 C   0  0  0  0  0  0  0  0  0  0  0  0
   -0.7500    1.2990    0.0000 C   0  0  0  0  0  0  0  0  0  0  0  0
    0.7500    1.2990    0.0000 C   0  0  0  0  0  0  0  0  0  0  0  0
    1.5000    2.5981    0.0000 O   0  0  0  0  0  0  0  0  0  0  0  0
    0.7500    3.8971    0.0000 C   0  0  0  0  0  0  0  0  0  0  0  0
    1.5000    5.1962    0.0000 C   0  0  0  0  0  0  0  0  0  0  0  0
    3.0000    5.1962    0.0000 N   0  0  0  0  0  0  0  0  0  0  0  0
    3.7500    6.4952    0.0000 S   0  0  0  0  0  0  0  0  0  0  0  0
    2.4510    7.2452    0.0000 O   0  0  0  0  0  0  0  0  0  0  0  0
    5.0490    5.7452    0.0000 O   0  0  0  0  0  0  0  0  0  0  0  0
    4.5000    7.7942    0.0000 C   0  0  0  0  0  0  0  0  0  0  0  0
    6.0000    7.7942    0.0000 C   0  0  0  0  0  0  0  0  0  0  0  0
    6.7500    9.0933    0.0000 C   0  0  0  0  0  0  0  0  0  0  0  0
    6.0000   10.3923    0.0000 C   0  0  0  0  0  0  0  0  0  0  0  0
    6.7500   11.6913    0.0000 C   0  0  0  0  0  0  0  0  0  0  0  0
    8.0490   10.9413    0.0000 C   0  0  0  0  0  0  0  0  0  0  0  0
    5.4510   12.4413    0.0000 C   0  0  0  0  0  0  0  0  0  0  0  0
    7.5000   12.9904    0.0000 C   0  0  0  0  0  0  0  0  0  0  0  0
    4.5000   10.3923    0.0000 C   0  0  0  0  0  0  0  0  0  0  0  0
    3.7500    9.0933    0.0000 C   0  0  0  0  0  0  0  0  0  0  0  0
    0.7500    6.4952    0.0000 N   0  0  0  0  0  0  0  0  0  0  0  0
   -0.7500    6.4952    0.0000 C   0  0  0  0  0  0  0  0  0  0  0  0
   -1.5000    7.7942    0.0000 C   0  0  0  0  0  0  0  0  0  0  0  0
   -0.7500    9.0933    0.0000 N   0  0  0  0  0  0  0  0  0  0  0  0
   -1.5000   10.3923    0.0000 C   0  0  0  0  0  0  0  0  0  0  0  0
   -3.0000   10.3923    0.0000 C   0  0  0  0  0  0  0  0  0  0  0  0
   -3.7500    9.0933    0.0000 C   0  0  0  0  0  0  0  0  0  0  0  0
   -3.0000    7.7942    0.0000 N   0  0  0  0  0  0  0  0  0  0  0  0
   -1.5000    5.1962    0.0000 N   0  0  0  0  0  0  0  0  0  0  0  0
   -0.7500    3.8971    0.0000 C   0  0  0  0  0  0  0  0  0  0  0  0
   -1.5000    2.5981    0.0000 O   0  0  0  0  0  0  0  0  0  0  0  0
   -3.0000    2.5981    0.0000 C   0  0  0  0  0  0  0  0  0  0  0  0
   -3.7500    1.2990    0.0000 C   0  0  0  0  0  0  0  0  0  0  0  0
   -5.2500    1.2990    0.0000 O   0  0  0  0  0  0  0  0  0  0  0  0
  1  2  1  0
  2  3  1  0
  3  4  2  0
  4  5  1  0
  5  6  2  0
  6  7  1  0
  7  8  2  0
  8  9  1  0
  9 10  1  0
 10 11  1  0
 11 12  1  0
 12 13  1  0
 13 14  2  0
 13 15  2  0
 13 16  1  0
 16 17  2  0
 17 18  1  0
 18 19  2  0
 19 20  1  0
 20 21  1  0
 20 22  1  0
 20 23  1  0
 19 24  1  0
 24 25  2  0
 11 26  2  0
 26 27  1  0
 27 28  1  0
 28 29  2  0
 29 30  1  0
 30 31  2  0
 31 32  1  0
 32 33  2  0
 27 34  2  0
 34 35  1  0
 35 36  1  0
 36 37  1  0
 37 38  1  0
 38 39  1  0
  8  3  1  0
 35 10  2  0
 25 16  1  0
 33 28  1  0
M  END
>  <assay_description>  (24) 
Inhibition of human BSEP expressed in fall armyworm sf9 cell plasma membrane vesicles assessed as reduction in vesicle-associated [3H]-taurocholate transport preincubated for 10 mins prior to ATP addition measured after 15 mins in presence of [3H]-taurocholate by topcount based membrane vesicle transport assay

>  <molecule_pref_name>  (24) 
BOSENTAN

>  <canonical_smiles>  (24) 
COc1ccccc1Oc1c(NS(=O)(=O)c2ccc(C(C)(C)C)cc2)nc(-c2ncccn2)nc1OCCO

>  <pchembl_value>  (24) 
4.66

>  <standard_type>  (24) 
IC50

>  <standard_relation>  (24) 
=

>  <standard_value>  (24) 
22000.0

>  <standard_units>  (24) 
nM

>  <target_pref_name>  (24) 
Bile salt export pump

>  <target_organism>  (24) 
Homo sapiens

$$$$
CHEMBL4060109
     RDKit          2D

 22 25  0  0  0  0  0  0  0  0999 V2000
    4.4998   -5.1699    0.0000 C   0  0  0  0  0  0  0  0  0  0  0  0
    3.0000   -5.1962    0.0000 C   0  0  0  0  0  0  0  0  0  0  0  0
    3.7500   -3.8971    0.0000 C   0  0  0  0  0  0  0  0  0  0  0  0
    3.0000   -2.5981    0.0000 C   0  0  0  0  0  0  0  0  0  0  0  0
    1.5000   -2.5981    0.0000 C   0  0  0  0  0  0  0  0  0  0  0  0
    0.7500   -1.2990    0.0000 C   0  0  0  0  0  0  0  0  0  0  0  0
    1.5000    0.0000    0.0000 C   0  0  0  0  0  0  0  0  0  0  0  0
    0.7500    1.2990    0.0000 C   0  0  0  0  0  0  0  0  0  0  0  0
   -0.7500    1.2990    0.0000 C   0  0  0  0  0  0  0  0  0  0  0  0
   -1.5000    2.5981    0.0000 O   0  0  0  0  0  0  0  0  0  0  0  0
   -1.5000    0.0000    0.0000 C   0  0  0  0  0  0  0  0  0  0  0  0
   -0.7500   -1.2990    0.0000 C   0  0  0  0  0  0  0  0  0  0  0  0
   -1.5000   -2.5981    0.0000 C   0  0  0  0  0  0  0  0  0  0  0  0
   -0.7500   -3.8971    0.0000 C   0  0  0  0  0  0  0  0  0  0  0  0
    0.7500   -3.8971    0.0000 C   0  0  0  0  0  0  0  0  0  0  0  0
    1.5000   -5.1962    0.0000 C   0  0  0  0  0  0  0  0  0  0  0  0
    1.0365   -6.6227    0.0000 C   0  0  0  0  0  0  0  0  0  0  0  0
    2.2500   -7.5044    0.0000 C   0  0  0  0  0  0  0  0  0  0  0  0
    3.4635   -6.6227    0.0000 C   0  0  0  0  0  0  0  0  0  0  0  0
    4.8980   -6.1842    0.0000 O   0  0  0  0  0  0  0  0  0  0  0  0
    4.2135   -7.9218    0.0000 C   0  0  0  0  0  0  0  0  0  0  0  0
    4.9635   -9.2208    0.0000 N   0  0  0  0  0  0  0  0  0  0  0  0
  2  1  1  1
  2  3  1  0
  3  4  1  0
  5  4  1  1
  5  6  1  0
  6  7  2  0
  7  8  1  0
  8  9  2  0
  9 10  1  0
  9 11  1  0
 11 12  2  0
 12 13  1  0
 13 14  1  0
 15 14  1  6
 15 16  1  0
 16 17  1  1
 17 18  1  0
 18 19  1  0
 19 20  1  1
 19 21  1  0
 21 22  3  0
 16  2  1  0
 19  2  1  0
 15  5  1  0
 12  6  1  0
M  END
>  <assay_description>  (25) 
Inhibition of human BSEP expressed in fall armyworm sf9 cell plasma membrane vesicles assessed as reduction in vesicle-associated [3H]-taurocholate transport preincubated for 10 mins prior to ATP addition measured after 15 mins in presence of [3H]-taurocholate by topcount based membrane vesicle transport assay

>  <molecule_pref_name>  (25) 
None

>  <canonical_smiles>  (25) 
C[C@]12CC[C@@H]3c4ccc(O)cc4CC[C@H]3[C@@H]1CC[C@@]2(O)C#N

>  <pchembl_value>  (25) 
4.85

>  <standard_type>  (25) 
IC50

>  <standard_relation>  (25) 
=

>  <standard_value>  (25) 
14000.0

>  <standard_units>  (25) 
nM

>  <target_pref_name>  (25) 
Bile salt export pump

>  <target_organism>  (25) 
Homo sapiens

$$$$
CHEMBL4068768
     RDKit          2D

 31 34  0  0  0  0  0  0  0  0999 V2000
    3.0000  -10.3923    0.0000 C   0  0  0  0  0  0  0  0  0  0  0  0
    3.7500   -9.0933    0.0000 C   0  0  0  0  0  0  0  0  0  0  0  0
    3.0000   -7.7942    0.0000 C   0  0  0  0  0  0  0  0  0  0  0  0
    3.7500   -6.4952    0.0000 C   0  0  0  0  0  0  0  0  0  0  0  0
    5.2500   -6.4952    0.0000 C   0  0  0  0  0  0  0  0  0  0  0  0
    6.0000   -5.1962    0.0000 N   0  0  0  0  0  0  0  0  0  0  0  0
    5.2500   -3.8971    0.0000 C   0  0  0  0  0  0  0  0  0  0  0  0
    6.0000   -2.5981    0.0000 N   0  0  0  0  0  0  0  0  0  0  0  0
    5.2500   -1.2990    0.0000 C   0  0  0  0  0  0  0  0  0  0  0  0
    3.7500   -1.2990    0.0000 C   0  0  0  0  0  0  0  0  0  0  0  0
    3.0000   -2.5981    0.0000 C   0  0  0  0  0  0  0  0  0  0  0  0
    1.5000   -2.5981    0.0000 N   0  0  0  0  0  0  0  0  0  0  0  0
    0.7500   -3.8971    0.0000 C   0  0  0  0  0  0  0  0  0  0  0  0
    0.7500   -1.2990    0.0000 C   0  0  0  0  0  0  0  0  0  0  0  0
    1.5000    0.0000    0.0000 C   0  0  0  0  0  0  0  0  0  0  0  0
    0.7500    1.2990    0.0000 C   0  0  0  0  0  0  0  0  0  0  0  0
   -0.7500    1.2990    0.0000 C   0  0  0  0  0  0  0  0  0  0  0  0
   -1.7537    2.4138    0.0000 C   0  0  0  0  0  0  0  0  0  0  0  0
   -1.4418    3.8810    0.0000 C   0  0  0  0  0  0  0  0  0  0  0  0
   -3.1240    1.8037    0.0000 N   0  0  0  0  0  0  0  0  0  0  0  0
   -4.4231    2.5537    0.0000 C   0  0  0  0  0  0  0  0  0  0  0  0
   -2.9672    0.3119    0.0000 N   0  0  0  0  0  0  0  0  0  0  0  0
   -1.5000    0.0000    0.0000 C   0  0  0  0  0  0  0  0  0  0  0  0
   -0.7500   -1.2990    0.0000 C   0  0  0  0  0  0  0  0  0  0  0  0
    3.7500   -3.8971    0.0000 N   0  0  0  0  0  0  0  0  0  0  0  0
    6.0000   -7.7942    0.0000 C   0  0  0  0  0  0  0  0  0  0  0  0
    5.2500   -9.0933    0.0000 C   0  0  0  0  0  0  0  0  0  0  0  0
    6.0000  -10.3923    0.0000 S   0  0  0  0  0  0  0  0  0  0  0  0
    6.7500  -11.6913    0.0000 C   0  0  0  0  0  0  0  0  0  0  0  0
    4.7010  -11.1423    0.0000 O   0  0  0  0  0  0  0  0  0  0  0  0
    7.2990   -9.6423    0.0000 O   0  0  0  0  0  0  0  0  0  0  0  0
  1  2  1  0
  2  3  2  0
  3  4  1  0
  4  5  2  0
  5  6  1  0
  6  7  1  0
  7  8  2  0
  8  9  1  0
  9 10  2  0
 10 11  1  0
 11 12  1  0
 12 13  1  0
 12 14  1  0
 14 15  1  0
 15 16  2  0
 16 17  1  0
 17 18  2  0
 18 19  1  0
 18 20  1  0
 20 21  1  0
 20 22  1  0
 22 23  2  0
 23 24  1  0
 11 25  2  0
  5 26  1  0
 26 27  2  0
 27 28  1  0
 28 29  1  0
 28 30  2  0
 28 31  2  0
 27  2  1  0
 25  7  1  0
 24 14  2  0
 23 17  1  0
M  END
>  <assay_description>  (26) 
Inhibition of human BSEP expressed in fall armyworm sf9 cell plasma membrane vesicles assessed as reduction in vesicle-associated [3H]-taurocholate transport preincubated for 10 mins prior to ATP addition measured after 15 mins in presence of [3H]-taurocholate by topcount based membrane vesicle transport assay

>  <molecule_pref_name>  (26) 
None

>  <canonical_smiles>  (26) 
Cc1ccc(Nc2nccc(N(C)c3ccc4c(C)n(C)nc4c3)n2)cc1S(C)(=O)=O

>  <pchembl_value>  (26) 
4.99

>  <standard_type>  (26) 
IC50

>  <standard_relation>  (26) 
=

>  <standard_value>  (26) 
10300.0

>  <standard_units>  (26) 
nM

>  <target_pref_name>  (26) 
Bile salt export pump

>  <target_organism>  (26) 
Homo sapiens

$$$$
CHEMBL772
     RDKit          2D

 44 49  0  0  0  0  0  0  0  0999 V2000
    6.0676   -8.0157    0.0000 C   0  0  0  0  0  0  0  0  0  0  0  0
    4.6973   -8.6258    0.0000 O   0  0  0  0  0  0  0  0  0  0  0  0
    3.4838   -7.7441    0.0000 C   0  0  0  0  0  0  0  0  0  0  0  0
    3.6406   -6.2523    0.0000 O   0  0  0  0  0  0  0  0  0  0  0  0
    2.1135   -8.3542    0.0000 C   0  0  0  0  0  0  0  0  0  0  0  0
    0.8999   -7.4725    0.0000 C   0  0  0  0  0  0  0  0  0  0  0  0
    1.0567   -5.9808    0.0000 C   0  0  0  0  0  0  0  0  0  0  0  0
   -0.1568   -5.0991    0.0000 C   0  0  0  0  0  0  0  0  0  0  0  0
   -0.0000   -3.6073    0.0000 C   0  0  0  0  0  0  0  0  0  0  0  0
    1.2135   -2.7256    0.0000 N   0  0  0  0  0  0  0  0  0  0  0  0
    0.7500   -1.2990    0.0000 C   0  0  0  0  0  0  0  0  0  0  0  0
    1.5000    0.0000    0.0000 C   0  0  0  0  0  0  0  0  0  0  0  0
    0.7500    1.2990    0.0000 C   0  0  0  0  0  0  0  0  0  0  0  0
    1.5000    2.5981    0.0000 O   0  0  0  0  0  0  0  0  0  0  0  0
    3.0000    2.5981    0.0000 C   0  0  0  0  0  0  0  0  0  0  0  0
   -0.7500    1.2990    0.0000 C   0  0  0  0  0  0  0  0  0  0  0  0
   -1.5000    0.0000    0.0000 C   0  0  0  0  0  0  0  0  0  0  0  0
   -0.7500   -1.2990    0.0000 C   0  0  0  0  0  0  0  0  0  0  0  0
   -1.2135   -2.7256    0.0000 C   0  0  0  0  0  0  0  0  0  0  0  0
   -2.5838   -3.3357    0.0000 C   0  0  0  0  0  0  0  0  0  0  0  0
   -2.7406   -4.8275    0.0000 C   0  0  0  0  0  0  0  0  0  0  0  0
   -1.5271   -5.7092    0.0000 N   0  0  0  0  0  0  0  0  0  0  0  0
   -1.6839   -7.2010    0.0000 C   0  0  0  0  0  0  0  0  0  0  0  0
   -0.4704   -8.0826    0.0000 C   0  0  0  0  0  0  0  0  0  0  0  0
   -0.6272   -9.5744    0.0000 C   0  0  0  0  0  0  0  0  0  0  0  0
    0.5864  -10.4561    0.0000 C   0  0  0  0  0  0  0  0  0  0  0  0
    0.4296  -11.9479    0.0000 O   0  0  0  0  0  0  0  0  0  0  0  0
   -0.9408  -12.5580    0.0000 C   0  0  0  0  0  0  0  0  0  0  0  0
   -2.1543  -11.6763    0.0000 O   0  0  0  0  0  0  0  0  0  0  0  0
   -1.0975  -14.0498    0.0000 C   0  0  0  0  0  0  0  0  0  0  0  0
   -2.4679  -14.6599    0.0000 C   0  0  0  0  0  0  0  0  0  0  0  0
   -2.6247  -16.1517    0.0000 C   0  0  0  0  0  0  0  0  0  0  0  0
   -3.9950  -16.7618    0.0000 O   0  0  0  0  0  0  0  0  0  0  0  0
   -5.2085  -15.8801    0.0000 C   0  0  0  0  0  0  0  0  0  0  0  0
   -1.4111  -17.0333    0.0000 C   0  0  0  0  0  0  0  0  0  0  0  0
   -1.5679  -18.5251    0.0000 O   0  0  0  0  0  0  0  0  0  0  0  0
   -0.3544  -19.4068    0.0000 C   0  0  0  0  0  0  0  0  0  0  0  0
   -0.0408  -16.4232    0.0000 C   0  0  0  0  0  0  0  0  0  0  0  0
    1.1727  -17.3049    0.0000 O   0  0  0  0  0  0  0  0  0  0  0  0
    2.5430  -16.6948    0.0000 C   0  0  0  0  0  0  0  0  0  0  0  0
    0.1160  -14.9315    0.0000 C   0  0  0  0  0  0  0  0  0  0  0  0
    1.9567   -9.8460    0.0000 C   0  0  0  0  0  0  0  0  0  0  0  0
    3.1702  -10.7277    0.0000 O   0  0  0  0  0  0  0  0  0  0  0  0
    3.0134  -12.2195    0.0000 C   0  0  0  0  0  0  0  0  0  0  0  0
  1  2  1  0
  2  3  1  0
  3  4  2  0
  5  3  1  6
  5  6  1  0
  6  7  1  6
  8  7  1  1
  8  9  1  0
  9 10  1  0
 10 11  1  0
 11 12  2  0
 12 13  1  0
 13 14  1  0
 14 15  1  0
 13 16  2  0
 16 17  1  0
 17 18  2  0
 18 19  1  0
 19 20  1  0
 20 21  1  0
 21 22  1  0
 22 23  1  0
 24 23  1  6
 24 25  1  0
 25 26  1  0
 26 27  1  6
 27 28  1  0
 28 29  2  0
 28 30  1  0
 30 31  2  0
 31 32  1  0
 32 33  1  0
 33 34  1  0
 32 35  2  0
 35 36  1  0
 36 37  1  0
 35 38  1  0
 38 39  1  0
 39 40  1  0
 38 41  2  0
 26 42  1  0
 42 43  1  1
 43 44  1  0
 42  5  1  0
 24  6  1  0
 41 30  1  0
 22  8  1  0
 19  9  2  0
 18 11  1  0
M  END
>  <assay_description>  (27) 
Inhibition of human BSEP expressed in fall armyworm sf9 cell plasma membrane vesicles assessed as reduction in vesicle-associated [3H]-taurocholate transport preincubated for 10 mins prior to ATP addition measured after 15 mins in presence of [3H]-taurocholate by topcount based membrane vesicle transport assay

>  <molecule_pref_name>  (27) 
RESERPINE

>  <canonical_smiles>  (27) 
COC(=O)[C@H]1[C@H]2C[C@@H]3c4[nH]c5cc(OC)ccc5c4CCN3C[C@H]2C[C@@H](OC(=O)c2cc(OC)c(OC)c(OC)c2)[C@@H]1OC

>  <pchembl_value>  (27) 
5.08

>  <standard_type>  (27) 
IC50

>  <standard_relation>  (27) 
=

>  <standard_value>  (27) 
8400.0

>  <standard_units>  (27) 
nM

>  <target_pref_name>  (27) 
Bile salt export pump

>  <target_organism>  (27) 
Homo sapiens

$$$$
CHEMBL623
     RDKit          2D

 33 36  0  0  0  0  0  0  0  0999 V2000
   -0.8113  -11.2427    0.0000 C   0  0  0  0  0  0  0  0  0  0  0  0
    0.4022  -10.3610    0.0000 C   0  0  0  0  0  0  0  0  0  0  0  0
    0.2454   -8.8692    0.0000 C   0  0  0  0  0  0  0  0  0  0  0  0
    1.3601   -7.8655    0.0000 N   0  0  0  0  0  0  0  0  0  0  0  0
    0.7500   -6.4952    0.0000 N   0  0  0  0  0  0  0  0  0  0  0  0
    1.5000   -5.1962    0.0000 C   0  0  0  0  0  0  0  0  0  0  0  0
    0.7500   -3.8971    0.0000 C   0  0  0  0  0  0  0  0  0  0  0  0
    1.5000   -2.5981    0.0000 C   0  0  0  0  0  0  0  0  0  0  0  0
    0.7500   -1.2990    0.0000 N   0  0  0  0  0  0  0  0  0  0  0  0
    1.5000    0.0000    0.0000 C   0  0  0  0  0  0  0  0  0  0  0  0
    0.7500    1.2990    0.0000 C   0  0  0  0  0  0  0  0  0  0  0  0
   -0.7500    1.2990    0.0000 N   0  0  0  0  0  0  0  0  0  0  0  0
   -1.5000    2.5981    0.0000 C   0  0  0  0  0  0  0  0  0  0  0  0
   -0.7500    3.8971    0.0000 C   0  0  0  0  0  0  0  0  0  0  0  0
   -1.5000    5.1962    0.0000 C   0  0  0  0  0  0  0  0  0  0  0  0
   -3.0000    5.1962    0.0000 C   0  0  0  0  0  0  0  0  0  0  0  0
   -3.7500    3.8971    0.0000 C   0  0  0  0  0  0  0  0  0  0  0  0
   -5.2500    3.8971    0.0000 Cl  0  0  0  0  0  0  0  0  0  0  0  0
   -3.0000    2.5981    0.0000 C   0  0  0  0  0  0  0  0  0  0  0  0
   -1.5000    0.0000    0.0000 C   0  0  0  0  0  0  0  0  0  0  0  0
   -0.7500   -1.2990    0.0000 C   0  0  0  0  0  0  0  0  0  0  0  0
   -0.7418   -6.6520    0.0000 C   0  0  0  0  0  0  0  0  0  0  0  0
   -1.7455   -5.5373    0.0000 O   0  0  0  0  0  0  0  0  0  0  0  0
   -1.0537   -8.1192    0.0000 N   0  0  0  0  0  0  0  0  0  0  0  0
   -2.4240   -8.7293    0.0000 C   0  0  0  0  0  0  0  0  0  0  0  0
   -3.6375   -7.8476    0.0000 C   0  0  0  0  0  0  0  0  0  0  0  0
   -5.0078   -8.4577    0.0000 O   0  0  0  0  0  0  0  0  0  0  0  0
   -6.2213   -7.5761    0.0000 C   0  0  0  0  0  0  0  0  0  0  0  0
   -6.0645   -6.0843    0.0000 C   0  0  0  0  0  0  0  0  0  0  0  0
   -7.2781   -5.2026    0.0000 C   0  0  0  0  0  0  0  0  0  0  0  0
   -8.6484   -5.8127    0.0000 C   0  0  0  0  0  0  0  0  0  0  0  0
   -8.8052   -7.3045    0.0000 C   0  0  0  0  0  0  0  0  0  0  0  0
   -7.5917   -8.1862    0.0000 C   0  0  0  0  0  0  0  0  0  0  0  0
  1  2  1  0
  2  3  1  0
  3  4  2  0
  4  5  1  0
  5  6  1  0
  6  7  1  0
  7  8  1  0
  8  9  1  0
  9 10  1  0
 10 11  1  0
 11 12  1  0
 12 13  1  0
 13 14  2  0
 14 15  1  0
 15 16  2  0
 16 17  1  0
 17 18  1  0
 17 19  2  0
 12 20  1  0
 20 21  1  0
  5 22  1  0
 22 23  2  0
 22 24  1  0
 24 25  1  0
 25 26  1  0
 26 27  1  0
 27 28  1  0
 28 29  2  0
 29 30  1  0
 30 31  2  0
 31 32  1  0
 32 33  2  0
 24  3  1  0
 33 28  1  0
 21  9  1  0
 19 13  1  0
M  END
>  <assay_description>  (28) 
Inhibition of human BSEP expressed in fall armyworm sf9 cell plasma membrane vesicles assessed as reduction in vesicle-associated [3H]-taurocholate transport preincubated for 10 mins prior to ATP addition measured after 15 mins in presence of [3H]-taurocholate by topcount based membrane vesicle transport assay

>  <molecule_pref_name>  (28) 
NEFAZODONE

>  <canonical_smiles>  (28) 
CCc1nn(CCCN2CCN(c3cccc(Cl)c3)CC2)c(=O)n1CCOc1ccccc1

>  <pchembl_value>  (28) 
5.21

>  <standard_type>  (28) 
IC50

>  <standard_relation>  (28) 
=

>  <standard_value>  (28) 
6100.0

>  <standard_units>  (28) 
nM

>  <target_pref_name>  (28) 
Bile salt export pump

>  <target_organism>  (28) 
Homo sapiens

$$$$
CHEMBL472
     RDKit          2D

 33 35  0  0  0  0  0  0  0  0999 V2000
    3.7500   -1.2990    0.0000 C   0  0  0  0  0  0  0  0  0  0  0  0
    3.0000    0.0000    0.0000 O   0  0  0  0  0  0  0  0  0  0  0  0
    1.5000    0.0000    0.0000 C   0  0  0  0  0  0  0  0  0  0  0  0
    0.7500   -1.2990    0.0000 C   0  0  0  0  0  0  0  0  0  0  0  0
   -0.7500   -1.2990    0.0000 C   0  0  0  0  0  0  0  0  0  0  0  0
   -1.5000    0.0000    0.0000 C   0  0  0  0  0  0  0  0  0  0  0  0
   -3.0000    0.0000    0.0000 Cl  0  0  0  0  0  0  0  0  0  0  0  0
   -0.7500    1.2990    0.0000 C   0  0  0  0  0  0  0  0  0  0  0  0
    0.7500    1.2990    0.0000 C   0  0  0  0  0  0  0  0  0  0  0  0
    1.5000    2.5981    0.0000 C   0  0  0  0  0  0  0  0  0  0  0  0
    0.7500    3.8971    0.0000 O   0  0  0  0  0  0  0  0  0  0  0  0
    3.0000    2.5981    0.0000 N   0  0  0  0  0  0  0  0  0  0  0  0
    3.7500    3.8971    0.0000 C   0  0  0  0  0  0  0  0  0  0  0  0
    5.2500    3.8971    0.0000 C   0  0  0  0  0  0  0  0  0  0  0  0
    6.0000    5.1962    0.0000 C   0  0  0  0  0  0  0  0  0  0  0  0
    7.5000    5.1962    0.0000 C   0  0  0  0  0  0  0  0  0  0  0  0
    8.2500    6.4952    0.0000 C   0  0  0  0  0  0  0  0  0  0  0  0
    7.5000    7.7942    0.0000 C   0  0  0  0  0  0  0  0  0  0  0  0
    8.2500    9.0933    0.0000 S   0  0  0  0  0  0  0  0  0  0  0  0
    9.5490    8.3433    0.0000 O   0  0  0  0  0  0  0  0  0  0  0  0
    6.9510    9.8433    0.0000 O   0  0  0  0  0  0  0  0  0  0  0  0
    9.0000   10.3923    0.0000 N   0  0  0  0  0  0  0  0  0  0  0  0
    8.2500   11.6913    0.0000 C   0  0  0  0  0  0  0  0  0  0  0  0
    6.7500   11.6913    0.0000 O   0  0  0  0  0  0  0  0  0  0  0  0
    9.0000   12.9904    0.0000 N   0  0  0  0  0  0  0  0  0  0  0  0
    8.2500   14.2894    0.0000 C   0  0  0  0  0  0  0  0  0  0  0  0
    9.0000   15.5885    0.0000 C   0  0  0  0  0  0  0  0  0  0  0  0
    8.2500   16.8875    0.0000 C   0  0  0  0  0  0  0  0  0  0  0  0
    6.7500   16.8875    0.0000 C   0  0  0  0  0  0  0  0  0  0  0  0
    6.0000   15.5885    0.0000 C   0  0  0  0  0  0  0  0  0  0  0  0
    6.7500   14.2894    0.0000 C   0  0  0  0  0  0  0  0  0  0  0  0
    6.0000    7.7942    0.0000 C   0  0  0  0  0  0  0  0  0  0  0  0
    5.2500    6.4952    0.0000 C   0  0  0  0  0  0  0  0  0  0  0  0
  1  2  1  0
  2  3  1  0
  3  4  2  0
  4  5  1  0
  5  6  2  0
  6  7  1  0
  6  8  1  0
  8  9  2  0
  9 10  1  0
 10 11  2  0
 10 12  1  0
 12 13  1  0
 13 14  1  0
 14 15  1  0
 15 16  2  0
 16 17  1  0
 17 18  2  0
 18 19  1  0
 19 20  2  0
 19 21  2  0
 19 22  1  0
 22 23  1  0
 23 24  2  0
 23 25  1  0
 25 26  1  0
 26 27  1  0
 27 28  1  0
 28 29  1  0
 29 30  1  0
 30 31  1  0
 18 32  1  0
 32 33  2  0
  9  3  1  0
 33 15  1  0
 31 26  1  0
M  END
>  <assay_description>  (29) 
Inhibition of human BSEP expressed in fall armyworm sf9 cell plasma membrane vesicles assessed as reduction in vesicle-associated [3H]-taurocholate transport preincubated for 10 mins prior to ATP addition measured after 15 mins in presence of [3H]-taurocholate by topcount based membrane vesicle transport assay

>  <molecule_pref_name>  (29) 
GLYBURIDE

>  <canonical_smiles>  (29) 
COc1ccc(Cl)cc1C(=O)NCCc1ccc(S(=O)(=O)NC(=O)NC2CCCCC2)cc1

>  <pchembl_value>  (29) 
5.21

>  <standard_type>  (29) 
IC50

>  <standard_relation>  (29) 
=

>  <standard_value>  (29) 
6100.0

>  <standard_units>  (29) 
nM

>  <target_pref_name>  (29) 
Bile salt export pump

>  <target_organism>  (29) 
Homo sapiens

$$$$
CHEMBL121
     RDKit          2D

 25 27  0  0  0  0  0  0  0  0999 V2000
    1.5000   -7.7942    0.0000 C   0  0  0  0  0  0  0  0  0  0  0  0
    0.7500   -6.4952    0.0000 N   0  0  0  0  0  0  0  0  0  0  0  0
    1.5000   -5.1962    0.0000 C   0  0  0  0  0  0  0  0  0  0  0  0
    0.7500   -3.8971    0.0000 C   0  0  0  0  0  0  0  0  0  0  0  0
    1.5000   -2.5981    0.0000 O   0  0  0  0  0  0  0  0  0  0  0  0
    0.7500   -1.2990    0.0000 C   0  0  0  0  0  0  0  0  0  0  0  0
    1.5000    0.0000    0.0000 C   0  0  0  0  0  0  0  0  0  0  0  0
    0.7500    1.2990    0.0000 C   0  0  0  0  0  0  0  0  0  0  0  0
   -0.7500    1.2990    0.0000 C   0  0  0  0  0  0  0  0  0  0  0  0
   -1.5000    2.5981    0.0000 C   0  0  0  0  0  0  0  0  0  0  0  0
   -0.7500    3.8971    0.0000 C   0  0  0  0  0  0  0  0  0  0  0  0
   -1.3601    5.2674    0.0000 S   0  0  0  0  0  0  0  0  0  0  0  0
   -0.2454    6.2711    0.0000 C   0  0  0  0  0  0  0  0  0  0  0  0
   -0.4022    7.7629    0.0000 O   0  0  0  0  0  0  0  0  0  0  0  0
    1.0537    5.5211    0.0000 N   0  0  0  0  0  0  0  0  0  0  0  0
    0.7418    4.0539    0.0000 C   0  0  0  0  0  0  0  0  0  0  0  0
    1.7455    2.9392    0.0000 O   0  0  0  0  0  0  0  0  0  0  0  0
   -1.5000    0.0000    0.0000 C   0  0  0  0  0  0  0  0  0  0  0  0
   -0.7500   -1.2990    0.0000 C   0  0  0  0  0  0  0  0  0  0  0  0
   -0.7500   -6.4952    0.0000 C   0  0  0  0  0  0  0  0  0  0  0  0
   -1.5000   -5.1962    0.0000 C   0  0  0  0  0  0  0  0  0  0  0  0
   -3.0000   -5.1962    0.0000 C   0  0  0  0  0  0  0  0  0  0  0  0
   -3.7500   -6.4952    0.0000 C   0  0  0  0  0  0  0  0  0  0  0  0
   -3.0000   -7.7942    0.0000 C   0  0  0  0  0  0  0  0  0  0  0  0
   -1.5000   -7.7942    0.0000 N   0  0  0  0  0  0  0  0  0  0  0  0
  1  2  1  0
  2  3  1  0
  3  4  1  0
  4  5  1  0
  5  6  1  0
  6  7  2  0
  7  8  1  0
  8  9  2  0
  9 10  1  0
 10 11  1  0
 11 12  1  0
 12 13  1  0
 13 14  2  0
 13 15  1  0
 15 16  1  0
 16 17  2  0
  9 18  1  0
 18 19  2  0
  2 20  1  0
 20 21  2  0
 21 22  1  0
 22 23  2  0
 23 24  1  0
 24 25  2  0
 19  6  1  0
 25 20  1  0
 16 11  1  0
M  END
>  <assay_description>  (30) 
Inhibition of human BSEP expressed in fall armyworm sf9 cell plasma membrane vesicles assessed as reduction in vesicle-associated [3H]-taurocholate transport preincubated for 10 mins prior to ATP addition measured after 15 mins in presence of [3H]-taurocholate by topcount based membrane vesicle transport assay

>  <molecule_pref_name>  (30) 
ROSIGLITAZONE

>  <canonical_smiles>  (30) 
CN(CCOc1ccc(CC2SC(=O)NC2=O)cc1)c1ccccn1

>  <pchembl_value>  (30) 
5.36

>  <standard_type>  (30) 
IC50

>  <standard_relation>  (30) 
=

>  <standard_value>  (30) 
4400.0

>  <standard_units>  (30) 
nM

>  <target_pref_name>  (30) 
Bile salt export pump

>  <target_organism>  (30) 
Homo sapiens

$$$$
CHEMBL1136
     RDKit          2D

 58 62  0  0  0  0  0  0  0  0999 V2000
   -0.7339   -4.5199    0.0000 C   0  0  0  0  0  0  0  0  0  0  0  0
   -0.5104   -3.0367    0.0000 C   0  0  0  0  0  0  0  0  0  0  0  0
   -1.6831   -2.1015    0.0000 C   0  0  0  0  0  0  0  0  0  0  0  0
   -2.8559   -3.0367    0.0000 O   0  0  0  0  0  0  0  0  0  0  0  0
   -4.3183   -3.3705    0.0000 C   0  0  0  0  0  0  0  0  0  0  0  0
   -4.3183   -4.8705    0.0000 O   0  0  0  0  0  0  0  0  0  0  0  0
   -5.7806   -3.0367    0.0000 C   0  0  0  0  0  0  0  0  0  0  0  0
   -6.4315   -4.3881    0.0000 C   0  0  0  0  0  0  0  0  0  0  0  0
   -6.9534   -2.1015    0.0000 C   0  0  0  0  0  0  0  0  0  0  0  0
   -8.1261   -3.0367    0.0000 O   0  0  0  0  0  0  0  0  0  0  0  0
   -7.6042   -0.7500    0.0000 C   0  0  0  0  0  0  0  0  0  0  0  0
   -9.0666   -1.0838    0.0000 C   0  0  0  0  0  0  0  0  0  0  0  0
   -7.6042    0.7500    0.0000 C   0  0  0  0  0  0  0  0  0  0  0  0
   -9.0666    1.0838    0.0000 O   0  0  0  0  0  0  0  0  0  0  0  0
   -9.5087    2.5171    0.0000 C   0  0  0  0  0  0  0  0  0  0  0  0
   -8.4885    3.6167    0.0000 O   0  0  0  0  0  0  0  0  0  0  0  0
   -8.9306    5.0501    0.0000 C   0  0  0  0  0  0  0  0  0  0  0  0
   -7.9104    6.1497    0.0000 C   0  0  0  0  0  0  0  0  0  0  0  0
  -10.3930    5.3839    0.0000 C   0  0  0  0  0  0  0  0  0  0  0  0
  -11.4133    4.2843    0.0000 C   0  0  0  0  0  0  0  0  0  0  0  0
  -12.8757    4.6181    0.0000 N   0  0  0  0  0  0  0  0  0  0  0  0
  -13.3178    6.0514    0.0000 C   0  0  0  0  0  0  0  0  0  0  0  0
  -13.8959    3.5185    0.0000 C   0  0  0  0  0  0  0  0  0  0  0  0
  -10.9711    2.8509    0.0000 C   0  0  0  0  0  0  0  0  0  0  0  0
  -11.9914    1.7513    0.0000 O   0  0  0  0  0  0  0  0  0  0  0  0
   -6.9534    2.1015    0.0000 C   0  0  0  0  0  0  0  0  0  0  0  0
   -8.4492    2.2135    0.0000 C   0  0  0  0  0  0  0  0  0  0  0  0
   -7.3955    3.5348    0.0000 O   0  0  0  0  0  0  0  0  0  0  0  0
   -6.3753    4.6344    0.0000 C   0  0  0  0  0  0  0  0  0  0  0  0
   -5.7806    3.0367    0.0000 C   0  0  0  0  0  0  0  0  0  0  0  0
   -4.3183    3.3705    0.0000 C   0  0  0  0  0  0  0  0  0  0  0  0
   -4.3183    4.8705    0.0000 C   0  0  0  0  0  0  0  0  0  0  0  0
   -2.8559    3.0367    0.0000 C   0  0  0  0  0  0  0  0  0  0  0  0
   -2.2050    4.3881    0.0000 O   0  0  0  0  0  0  0  0  0  0  0  0
   -1.6831    2.1015    0.0000 C   0  0  0  0  0  0  0  0  0  0  0  0
   -0.5104    3.0367    0.0000 C   0  0  0  0  0  0  0  0  0  0  0  0
   -1.0323    0.7500    0.0000 C   0  0  0  0  0  0  0  0  0  0  0  0
    0.3943    1.2135    0.0000 N   0  0  0  0  0  0  0  0  0  0  0  0
    0.8578    2.6401    0.0000 C   0  0  0  0  0  0  0  0  0  0  0  0
    2.3250    2.9520    0.0000 C   0  0  0  0  0  0  0  0  0  0  0  0
    2.7886    4.3786    0.0000 C   0  0  0  0  0  0  0  0  0  0  0  0
    4.2558    4.6904    0.0000 C   0  0  0  0  0  0  0  0  0  0  0  0
    4.7193    6.1170    0.0000 N   0  0  0  0  0  0  0  0  0  0  0  0
    3.8376    7.3305    0.0000 C   0  0  0  0  0  0  0  0  0  0  0  0
    4.7193    8.5441    0.0000 N   0  0  0  0  0  0  0  0  0  0  0  0
    6.1459    8.0805    0.0000 C   0  0  0  0  0  0  0  0  0  0  0  0
    7.3594    8.9622    0.0000 C   0  0  0  0  0  0  0  0  0  0  0  0
    8.7297    8.3521    0.0000 C   0  0  0  0  0  0  0  0  0  0  0  0
    9.9433    9.2338    0.0000 C   0  0  0  0  0  0  0  0  0  0  0  0
    9.7865   10.7256    0.0000 C   0  0  0  0  0  0  0  0  0  0  0  0
    8.4162   11.3357    0.0000 N   0  0  0  0  0  0  0  0  0  0  0  0
    7.2026   10.4540    0.0000 C   0  0  0  0  0  0  0  0  0  0  0  0
    6.1459    6.5805    0.0000 C   0  0  0  0  0  0  0  0  0  0  0  0
    1.2760    0.0000    0.0000 C   0  0  0  0  0  0  0  0  0  0  0  0
    2.7760    0.0000    0.0000 O   0  0  0  0  0  0  0  0  0  0  0  0
    0.3943   -1.2135    0.0000 O   0  0  0  0  0  0  0  0  0  0  0  0
   -1.0323   -0.7500    0.0000 C   0  0  0  0  0  0  0  0  0  0  0  0
   -0.4427   -2.1293    0.0000 C   0  0  0  0  0  0  0  0  0  0  0  0
  1  2  1  0
  3  2  1  1
  3  4  1  0
  4  5  1  0
  5  6  2  0
  5  7  1  0
  7  8  1  6
  7  9  1  0
  9 10  2  0
  9 11  1  0
 11 12  1  6
 11 13  1  0
 13 14  1  1
 15 14  1  1
 15 16  1  0
 16 17  1  0
 17 18  1  1
 17 19  1  0
 19 20  1  0
 20 21  1  1
 21 22  1  0
 21 23  1  0
 20 24  1  0
 24 25  1  6
 13 26  1  0
 26 27  1  1
 26 28  1  0
 28 29  1  0
 26 30  1  0
 30 31  1  0
 31 32  1  1
 31 33  1  0
 33 34  2  0
 33 35  1  0
 35 36  1  6
 35 37  1  0
 37 38  1  1
 38 39  1  0
 39 40  1  0
 40 41  1  0
 41 42  1  0
 42 43  1  0
 43 44  1  0
 44 45  2  0
 45 46  1  0
 46 47  1  0
 47 48  2  0
 48 49  1  0
 49 50  2  0
 50 51  1  0
 51 52  2  0
 46 53  2  0
 38 54  1  0
 54 55  2  0
 54 56  1  0
 56 57  1  0
 57 58  1  1
 57  3  1  0
 24 15  1  0
 57 37  1  0
 53 43  1  0
 52 47  1  0
M  END
>  <assay_description>  (31) 
Inhibition of human BSEP expressed in fall armyworm sf9 cell plasma membrane vesicles assessed as reduction in vesicle-associated [3H]-taurocholate transport preincubated for 10 mins prior to ATP addition measured after 15 mins in presence of [3H]-taurocholate by topcount based membrane vesicle transport assay

>  <molecule_pref_name>  (31) 
TELITHROMYCIN

>  <canonical_smiles>  (31) 
CC[C@H]1OC(=O)[C@H](C)C(=O)[C@H](C)[C@@H](O[C@@H]2O[C@H](C)C[C@H](N(C)C)[C@H]2O)[C@](C)(OC)C[C@@H](C)C(=O)[C@H](C)[C@H]2N(CCCCn3cnc(-c4cccnc4)c3)C(=O)O[C@]12C

>  <pchembl_value>  (31) 
5.40

>  <standard_type>  (31) 
IC50

>  <standard_relation>  (31) 
=

>  <standard_value>  (31) 
4000.0

>  <standard_units>  (31) 
nM

>  <target_pref_name>  (31) 
Bile salt export pump

>  <target_organism>  (31) 
Homo sapiens

$$$$
CHEMBL15177
     RDKit          2D

 34 36  0  0  0  0  0  0  0  0999 V2000
   14.2500   -9.0933    0.0000 C   0  0  0  0  0  0  0  0  0  0  0  0
   12.7500   -9.0933    0.0000 N   0  0  0  0  0  0  0  0  0  0  0  0
   12.0000  -10.3923    0.0000 C   0  0  0  0  0  0  0  0  0  0  0  0
   12.0000   -7.7942    0.0000 C   0  0  0  0  0  0  0  0  0  0  0  0
   12.7500   -6.4952    0.0000 O   0  0  0  0  0  0  0  0  0  0  0  0
   10.5000   -7.7942    0.0000 C   0  0  0  0  0  0  0  0  0  0  0  0
    9.7500   -6.4952    0.0000 C   0  0  0  0  0  0  0  0  0  0  0  0
    8.2500   -6.4952    0.0000 S   0  0  0  0  0  0  0  0  0  0  0  0
    7.5000   -5.1962    0.0000 C   0  0  0  0  0  0  0  0  0  0  0  0
    8.2500   -3.8971    0.0000 S   0  0  0  0  0  0  0  0  0  0  0  0
    9.7500   -3.8971    0.0000 C   0  0  0  0  0  0  0  0  0  0  0  0
   10.5000   -2.5981    0.0000 C   0  0  0  0  0  0  0  0  0  0  0  0
   12.0000   -2.5981    0.0000 C   0  0  0  0  0  0  0  0  0  0  0  0
   12.7500   -3.8971    0.0000 O   0  0  0  0  0  0  0  0  0  0  0  0
   12.7500   -1.2990    0.0000 O   0  0  0  0  0  0  0  0  0  0  0  0
    6.0000   -5.1962    0.0000 C   0  0  0  0  0  0  0  0  0  0  0  0
    5.2500   -6.4952    0.0000 C   0  0  0  0  0  0  0  0  0  0  0  0
    3.7500   -6.4952    0.0000 C   0  0  0  0  0  0  0  0  0  0  0  0
    3.0000   -5.1962    0.0000 C   0  0  0  0  0  0  0  0  0  0  0  0
    3.7500   -3.8971    0.0000 C   0  0  0  0  0  0  0  0  0  0  0  0
    3.0000   -2.5981    0.0000 C   0  0  0  0  0  0  0  0  0  0  0  0
    1.5000   -2.5981    0.0000 C   0  0  0  0  0  0  0  0  0  0  0  0
    0.7500   -1.2990    0.0000 C   0  0  0  0  0  0  0  0  0  0  0  0
    1.5000    0.0000    0.0000 C   0  0  0  0  0  0  0  0  0  0  0  0
    0.7500    1.2990    0.0000 C   0  0  0  0  0  0  0  0  0  0  0  0
   -0.7500    1.2990    0.0000 C   0  0  0  0  0  0  0  0  0  0  0  0
   -1.5000    2.5981    0.0000 C   0  0  0  0  0  0  0  0  0  0  0  0
   -3.0000    2.5981    0.0000 C   0  0  0  0  0  0  0  0  0  0  0  0
   -3.7500    1.2990    0.0000 C   0  0  0  0  0  0  0  0  0  0  0  0
   -5.2500    1.2990    0.0000 Cl  0  0  0  0  0  0  0  0  0  0  0  0
   -3.0000    0.0000    0.0000 C   0  0  0  0  0  0  0  0  0  0  0  0
   -1.5000    0.0000    0.0000 C   0  0  0  0  0  0  0  0  0  0  0  0
   -0.7500   -1.2990    0.0000 N   0  0  0  0  0  0  0  0  0  0  0  0
    5.2500   -3.8971    0.0000 C   0  0  0  0  0  0  0  0  0  0  0  0
  1  2  1  0
  2  3  1  0
  2  4  1  0
  4  5  2  0
  4  6  1  0
  6  7  1  0
  7  8  1  0
  8  9  1  0
  9 10  1  0
 10 11  1  0
 11 12  1  0
 12 13  1  0
 13 14  2  0
 13 15  1  0
  9 16  1  0
 16 17  2  0
 17 18  1  0
 18 19  2  0
 19 20  1  0
 20 21  1  0
 21 22  2  0
 22 23  1  0
 23 24  2  0
 24 25  1  0
 25 26  2  0
 26 27  1  0
 27 28  2  0
 28 29  1  0
 29 30  1  0
 29 31  2  0
 31 32  1  0
 32 33  2  0
 20 34  2  0
 34 16  1  0
 33 23  1  0
 32 26  1  0
M  END
>  <assay_description>  (32) 
Inhibition of human BSEP expressed in fall armyworm sf9 cell plasma membrane vesicles assessed as reduction in vesicle-associated [3H]-taurocholate transport preincubated for 10 mins prior to ATP addition measured after 15 mins in presence of [3H]-taurocholate by topcount based membrane vesicle transport assay

>  <molecule_pref_name>  (32) 
MK-571

>  <canonical_smiles>  (32) 
CN(C)C(=O)CCSC(SCCC(=O)O)c1cccc(/C=C/c2ccc3ccc(Cl)cc3n2)c1

>  <pchembl_value>  (32) 
5.46

>  <standard_type>  (32) 
IC50

>  <standard_relation>  (32) 
=

>  <standard_value>  (32) 
3500.0

>  <standard_units>  (32) 
nM

>  <target_pref_name>  (32) 
Bile salt export pump

>  <target_organism>  (32) 
Homo sapiens

$$$$
CHEMBL223643
     RDKit          2D

 78 78  0  0  0  0  0  0  0  0999 V2000
   10.8553   -1.2990    0.0000 C   0  0  0  0  0  0  0  0  0  0  0  0
   10.1053    0.0000    0.0000 C   0  0  0  0  0  0  0  0  0  0  0  0
   10.8553    1.2990    0.0000 C   0  0  0  0  0  0  0  0  0  0  0  0
    8.6053    0.0000    0.0000 C   0  0  0  0  0  0  0  0  0  0  0  0
    8.4746   -1.4943    0.0000 N   0  0  0  0  0  0  0  0  0  0  0  0
    8.0863   -2.9432    0.0000 C   0  0  0  0  0  0  0  0  0  0  0  0
    9.4959   -3.4562    0.0000 O   0  0  0  0  0  0  0  0  0  0  0  0
    7.4524   -4.3026    0.0000 C   0  0  0  0  0  0  0  0  0  0  0  0
    8.7514   -5.0526    0.0000 C   0  0  0  0  0  0  0  0  0  0  0  0
    6.5920   -5.5314    0.0000 O   0  0  0  0  0  0  0  0  0  0  0  0
    5.5314   -6.5920    0.0000 C   0  0  0  0  0  0  0  0  0  0  0  0
    6.4956   -7.7411    0.0000 O   0  0  0  0  0  0  0  0  0  0  0  0
    4.3026   -7.4524    0.0000 C   0  0  0  0  0  0  0  0  0  0  0  0
    5.0526   -8.7514    0.0000 C   0  0  0  0  0  0  0  0  0  0  0  0
    4.3026  -10.0505    0.0000 C   0  0  0  0  0  0  0  0  0  0  0  0
    6.5526   -8.7514    0.0000 C   0  0  0  0  0  0  0  0  0  0  0  0
    2.9432   -8.0863    0.0000 N   0  0  0  0  0  0  0  0  0  0  0  0
    1.4943   -8.4746    0.0000 C   0  0  0  0  0  0  0  0  0  0  0  0
    1.7548   -9.9518    0.0000 O   0  0  0  0  0  0  0  0  0  0  0  0
   -0.0000   -8.6053    0.0000 C   0  0  0  0  0  0  0  0  0  0  0  0
    0.0000  -10.1053    0.0000 C   0  0  0  0  0  0  0  0  0  0  0  0
   -1.2990  -10.8553    0.0000 C   0  0  0  0  0  0  0  0  0  0  0  0
    1.2990  -10.8553    0.0000 C   0  0  0  0  0  0  0  0  0  0  0  0
   -1.4943   -8.4746    0.0000 O   0  0  0  0  0  0  0  0  0  0  0  0
   -2.9432   -8.0863    0.0000 C   0  0  0  0  0  0  0  0  0  0  0  0
   -3.4562   -9.4959    0.0000 O   0  0  0  0  0  0  0  0  0  0  0  0
   -4.3026   -7.4524    0.0000 C   0  0  0  0  0  0  0  0  0  0  0  0
   -5.0526   -8.7514    0.0000 C   0  0  0  0  0  0  0  0  0  0  0  0
   -6.5526   -8.7514    0.0000 C   0  0  0  0  0  0  0  0  0  0  0  0
   -4.3026  -10.0505    0.0000 C   0  0  0  0  0  0  0  0  0  0  0  0
   -5.5314   -6.5920    0.0000 N   0  0  0  0  0  0  0  0  0  0  0  0
   -6.5920   -5.5314    0.0000 C   0  0  0  0  0  0  0  0  0  0  0  0
   -7.7411   -6.4956    0.0000 O   0  0  0  0  0  0  0  0  0  0  0  0
   -7.4524   -4.3026    0.0000 C   0  0  0  0  0  0  0  0  0  0  0  0
   -8.7514   -5.0526    0.0000 C   0  0  0  0  0  0  0  0  0  0  0  0
   -8.0863   -2.9432    0.0000 O   0  0  0  0  0  0  0  0  0  0  0  0
   -8.4746   -1.4943    0.0000 C   0  0  0  0  0  0  0  0  0  0  0  0
   -9.9518   -1.7548    0.0000 O   0  0  0  0  0  0  0  0  0  0  0  0
   -8.6053    0.0000    0.0000 C   0  0  0  0  0  0  0  0  0  0  0  0
  -10.1053    0.0000    0.0000 C   0  0  0  0  0  0  0  0  0  0  0  0
  -10.8553    1.2990    0.0000 C   0  0  0  0  0  0  0  0  0  0  0  0
  -10.8553   -1.2990    0.0000 C   0  0  0  0  0  0  0  0  0  0  0  0
   -8.4746    1.4943    0.0000 N   0  0  0  0  0  0  0  0  0  0  0  0
   -8.0863    2.9432    0.0000 C   0  0  0  0  0  0  0  0  0  0  0  0
   -9.4959    3.4562    0.0000 O   0  0  0  0  0  0  0  0  0  0  0  0
   -7.4524    4.3026    0.0000 C   0  0  0  0  0  0  0  0  0  0  0  0
   -8.7514    5.0526    0.0000 C   0  0  0  0  0  0  0  0  0  0  0  0
   -8.7514    6.5526    0.0000 C   0  0  0  0  0  0  0  0  0  0  0  0
  -10.0505    4.3026    0.0000 C   0  0  0  0  0  0  0  0  0  0  0  0
   -6.5920    5.5314    0.0000 O   0  0  0  0  0  0  0  0  0  0  0  0
   -5.5314    6.5920    0.0000 C   0  0  0  0  0  0  0  0  0  0  0  0
   -6.4956    7.7411    0.0000 O   0  0  0  0  0  0  0  0  0  0  0  0
   -4.3026    7.4524    0.0000 C   0  0  0  0  0  0  0  0  0  0  0  0
   -5.0526    8.7514    0.0000 C   0  0  0  0  0  0  0  0  0  0  0  0
   -4.3026   10.0505    0.0000 C   0  0  0  0  0  0  0  0  0  0  0  0
   -6.5526    8.7514    0.0000 C   0  0  0  0  0  0  0  0  0  0  0  0
   -2.9432    8.0863    0.0000 N   0  0  0  0  0  0  0  0  0  0  0  0
   -1.4943    8.4746    0.0000 C   0  0  0  0  0  0  0  0  0  0  0  0
   -1.7548    9.9518    0.0000 O   0  0  0  0  0  0  0  0  0  0  0  0
    0.0000    8.6053    0.0000 C   0  0  0  0  0  0  0  0  0  0  0  0
    0.0000   10.1053    0.0000 C   0  0  0  0  0  0  0  0  0  0  0  0
    1.4943    8.4746    0.0000 O   0  0  0  0  0  0  0  0  0  0  0  0
    2.9432    8.0863    0.0000 C   0  0  0  0  0  0  0  0  0  0  0  0
    3.4562    9.4959    0.0000 O   0  0  0  0  0  0  0  0  0  0  0  0
    4.3026    7.4524    0.0000 C   0  0  0  0  0  0  0  0  0  0  0  0
    5.0526    8.7514    0.0000 C   0  0  0  0  0  0  0  0  0  0  0  0
    6.5526    8.7514    0.0000 C   0  0  0  0  0  0  0  0  0  0  0  0
    4.3026   10.0505    0.0000 C   0  0  0  0  0  0  0  0  0  0  0  0
    5.5314    6.5920    0.0000 N   0  0  0  0  0  0  0  0  0  0  0  0
    6.5920    5.5314    0.0000 C   0  0  0  0  0  0  0  0  0  0  0  0
    7.7411    6.4956    0.0000 O   0  0  0  0  0  0  0  0  0  0  0  0
    7.4524    4.3026    0.0000 C   0  0  0  0  0  0  0  0  0  0  0  0
    8.7514    5.0526    0.0000 C   0  0  0  0  0  0  0  0  0  0  0  0
   10.0505    4.3026    0.0000 C   0  0  0  0  0  0  0  0  0  0  0  0
    8.7514    6.5526    0.0000 C   0  0  0  0  0  0  0  0  0  0  0  0
    8.0863    2.9432    0.0000 O   0  0  0  0  0  0  0  0  0  0  0  0
    8.4746    1.4943    0.0000 C   0  0  0  0  0  0  0  0  0  0  0  0
    9.9518    1.7548    0.0000 O   0  0  0  0  0  0  0  0  0  0  0  0
  1  2  1  0
  2  3  1  0
  4  2  1  6
  4  5  1  0
  5  6  1  0
  6  7  2  0
  6  8  1  0
  8  9  1  6
  8 10  1  0
 10 11  1  0
 11 12  2  0
 11 13  1  0
 13 14  1  1
 14 15  1  0
 14 16  1  0
 13 17  1  0
 17 18  1  0
 18 19  2  0
 18 20  1  0
 20 21  1  1
 21 22  1  0
 21 23  1  0
 20 24  1  0
 24 25  1  0
 25 26  2  0
 25 27  1  0
 27 28  1  6
 28 29  1  0
 28 30  1  0
 27 31  1  0
 31 32  1  0
 32 33  2  0
 32 34  1  0
 34 35  1  6
 34 36  1  0
 36 37  1  0
 37 38  2  0
 37 39  1  0
 39 40  1  1
 40 41  1  0
 40 42  1  0
 39 43  1  0
 43 44  1  0
 44 45  2  0
 44 46  1  0
 46 47  1  1
 47 48  1  0
 47 49  1  0
 46 50  1  0
 50 51  1  0
 51 52  2  0
 51 53  1  0
 53 54  1  6
 54 55  1  0
 54 56  1  0
 53 57  1  0
 57 58  1  0
 58 59  2  0
 58 60  1  0
 60 61  1  6
 60 62  1  0
 62 63  1  0
 63 64  2  0
 63 65  1  0
 65 66  1  1
 66 67  1  0
 66 68  1  0
 65 69  1  0
 69 70  1  0
 70 71  2  0
 70 72  1  0
 72 73  1  1
 73 74  1  0
 73 75  1  0
 72 76  1  0
 76 77  1  0
 77 78  2  0
 77  4  1  0
M  END
>  <assay_description>  (33) 
Inhibition of human BSEP expressed in fall armyworm sf9 cell plasma membrane vesicles assessed as reduction in vesicle-associated [3H]-taurocholate transport preincubated for 10 mins prior to ATP addition measured after 15 mins in presence of [3H]-taurocholate by topcount based membrane vesicle transport assay

>  <molecule_pref_name>  (33) 
VALINOMYCIN

>  <canonical_smiles>  (33) 
CC(C)[C@@H]1NC(=O)[C@H](C)OC(=O)[C@@H](C(C)C)NC(=O)[C@@H](C(C)C)OC(=O)[C@H](C(C)C)NC(=O)[C@H](C)OC(=O)[C@@H](C(C)C)NC(=O)[C@@H](C(C)C)OC(=O)[C@H](C(C)C)NC(=O)[C@H](C)OC(=O)[C@@H](C(C)C)NC(=O)[C@@H](C(C)C)OC1=O

>  <pchembl_value>  (33) 
5.80

>  <standard_type>  (33) 
IC50

>  <standard_relation>  (33) 
=

>  <standard_value>  (33) 
1600.0

>  <standard_units>  (33) 
nM

>  <target_pref_name>  (33) 
Bile salt export pump

>  <target_organism>  (33) 
Homo sapiens

$$$$
CHEMBL160
     RDKit          2D

 85 85  0  0  0  0  0  0  0  0999 V2000
   12.3901   -5.1962    0.0000 C   0  0  0  0  0  0  0  0  0  0  0  0
   11.6401   -3.8971    0.0000 C   0  0  0  0  0  0  0  0  0  0  0  0
   10.1401   -3.8971    0.0000 C   0  0  0  0  0  0  0  0  0  0  0  0
    9.3901   -2.5981    0.0000 C   0  0  0  0  0  0  0  0  0  0  0  0
   10.1401   -1.2990    0.0000 C   0  0  0  0  0  0  0  0  0  0  0  0
   11.6401   -1.2990    0.0000 C   0  0  0  0  0  0  0  0  0  0  0  0
    9.3901    0.0000    0.0000 C   0  0  0  0  0  0  0  0  0  0  0  0
   10.1401    1.2990    0.0000 O   0  0  0  0  0  0  0  0  0  0  0  0
    7.8901    0.0000    0.0000 C   0  0  0  0  0  0  0  0  0  0  0  0
    7.7475    1.4932    0.0000 C   0  0  0  0  0  0  0  0  0  0  0  0
    9.2204    1.7771    0.0000 O   0  0  0  0  0  0  0  0  0  0  0  0
    7.3249    2.9324    0.0000 N   0  0  0  0  0  0  0  0  0  0  0  0
    6.6376    4.2657    0.0000 C   0  0  0  0  0  0  0  0  0  0  0  0
    7.8994    5.0767    0.0000 C   0  0  0  0  0  0  0  0  0  0  0  0
    9.2327    4.3893    0.0000 C   0  0  0  0  0  0  0  0  0  0  0  0
    5.7103    5.4448    0.0000 C   0  0  0  0  0  0  0  0  0  0  0  0
    6.7959    6.4799    0.0000 O   0  0  0  0  0  0  0  0  0  0  0  0
    4.5767    6.4271    0.0000 N   0  0  0  0  0  0  0  0  0  0  0  0
    5.4468    7.6489    0.0000 C   0  0  0  0  0  0  0  0  0  0  0  0
    3.2777    7.1771    0.0000 C   0  0  0  0  0  0  0  0  0  0  0  0
    1.8602    7.6677    0.0000 C   0  0  0  0  0  0  0  0  0  0  0  0
    2.2138    9.1254    0.0000 O   0  0  0  0  0  0  0  0  0  0  0  0
    0.3754    7.8811    0.0000 N   0  0  0  0  0  0  0  0  0  0  0  0
    0.4468    9.3794    0.0000 C   0  0  0  0  0  0  0  0  0  0  0  0
   -1.1229    7.8098    0.0000 C   0  0  0  0  0  0  0  0  0  0  0  0
   -1.3363    9.2945    0.0000 C   0  0  0  0  0  0  0  0  0  0  0  0
   -0.1573   10.2217    0.0000 C   0  0  0  0  0  0  0  0  0  0  0  0
   -0.3707   11.7065    0.0000 C   0  0  0  0  0  0  0  0  0  0  0  0
    1.2353    9.6642    0.0000 C   0  0  0  0  0  0  0  0  0  0  0  0
   -2.5806    7.4561    0.0000 C   0  0  0  0  0  0  0  0  0  0  0  0
   -3.0712    8.8736    0.0000 O   0  0  0  0  0  0  0  0  0  0  0  0
   -3.9450    6.8330    0.0000 N   0  0  0  0  0  0  0  0  0  0  0  0
   -5.1669    5.9629    0.0000 C   0  0  0  0  0  0  0  0  0  0  0  0
   -6.1492    7.0966    0.0000 C   0  0  0  0  0  0  0  0  0  0  0  0
   -5.6586    8.5141    0.0000 C   0  0  0  0  0  0  0  0  0  0  0  0
   -7.6221    6.8127    0.0000 C   0  0  0  0  0  0  0  0  0  0  0  0
   -6.2020    4.8773    0.0000 C   0  0  0  0  0  0  0  0  0  0  0  0
   -7.3811    5.8046    0.0000 O   0  0  0  0  0  0  0  0  0  0  0  0
   -7.0130    3.6154    0.0000 N   0  0  0  0  0  0  0  0  0  0  0  0
   -8.3462    4.3028    0.0000 C   0  0  0  0  0  0  0  0  0  0  0  0
   -7.5705    2.2229    0.0000 C   0  0  0  0  0  0  0  0  0  0  0  0
   -9.0097    2.6455    0.0000 C   0  0  0  0  0  0  0  0  0  0  0  0
   -9.3634    4.1032    0.0000 C   0  0  0  0  0  0  0  0  0  0  0  0
  -10.8026    4.5258    0.0000 C   0  0  0  0  0  0  0  0  0  0  0  0
   -8.2778    5.1383    0.0000 C   0  0  0  0  0  0  0  0  0  0  0  0
   -7.8544    0.7500    0.0000 C   0  0  0  0  0  0  0  0  0  0  0  0
   -9.3476    0.8926    0.0000 O   0  0  0  0  0  0  0  0  0  0  0  0
   -7.8544   -0.7500    0.0000 N   0  0  0  0  0  0  0  0  0  0  0  0
   -7.5705   -2.2229    0.0000 C   0  0  0  0  0  0  0  0  0  0  0  0
   -9.0097   -2.6455    0.0000 C   0  0  0  0  0  0  0  0  0  0  0  0
   -7.0130   -3.6154    0.0000 C   0  0  0  0  0  0  0  0  0  0  0  0
   -8.3462   -4.3028    0.0000 O   0  0  0  0  0  0  0  0  0  0  0  0
   -6.2020   -4.8773    0.0000 N   0  0  0  0  0  0  0  0  0  0  0  0
   -5.1669   -5.9629    0.0000 C   0  0  0  0  0  0  0  0  0  0  0  0
   -6.1492   -7.0966    0.0000 C   0  0  0  0  0  0  0  0  0  0  0  0
   -3.9450   -6.8330    0.0000 C   0  0  0  0  0  0  0  0  0  0  0  0
   -4.6950   -8.1320    0.0000 O   0  0  0  0  0  0  0  0  0  0  0  0
   -2.5806   -7.4561    0.0000 N   0  0  0  0  0  0  0  0  0  0  0  0
   -3.0712   -8.8736    0.0000 C   0  0  0  0  0  0  0  0  0  0  0  0
   -1.1229   -7.8098    0.0000 C   0  0  0  0  0  0  0  0  0  0  0  0
   -1.3363   -9.2945    0.0000 C   0  0  0  0  0  0  0  0  0  0  0  0
   -2.7289   -9.8520    0.0000 C   0  0  0  0  0  0  0  0  0  0  0  0
   -2.9424  -11.3367    0.0000 C   0  0  0  0  0  0  0  0  0  0  0  0
   -3.9080   -8.9248    0.0000 C   0  0  0  0  0  0  0  0  0  0  0  0
    0.3754   -7.8811    0.0000 C   0  0  0  0  0  0  0  0  0  0  0  0
    0.4468   -9.3794    0.0000 O   0  0  0  0  0  0  0  0  0  0  0  0
    1.8602   -7.6677    0.0000 N   0  0  0  0  0  0  0  0  0  0  0  0
    2.2138   -9.1254    0.0000 C   0  0  0  0  0  0  0  0  0  0  0  0
    3.2777   -7.1771    0.0000 C   0  0  0  0  0  0  0  0  0  0  0  0
    3.9008   -8.5415    0.0000 C   0  0  0  0  0  0  0  0  0  0  0  0
    3.0307   -9.7634    0.0000 C   0  0  0  0  0  0  0  0  0  0  0  0
    3.6538  -11.1278    0.0000 C   0  0  0  0  0  0  0  0  0  0  0  0
    1.5375   -9.6208    0.0000 C   0  0  0  0  0  0  0  0  0  0  0  0
    4.5767   -6.4271    0.0000 C   0  0  0  0  0  0  0  0  0  0  0  0
    5.4468   -7.6489    0.0000 O   0  0  0  0  0  0  0  0  0  0  0  0
    5.7103   -5.4448    0.0000 N   0  0  0  0  0  0  0  0  0  0  0  0
    6.7959   -6.4799    0.0000 C   0  0  0  0  0  0  0  0  0  0  0  0
    6.6376   -4.2657    0.0000 C   0  0  0  0  0  0  0  0  0  0  0  0
    7.8994   -5.0767    0.0000 C   0  0  0  0  0  0  0  0  0  0  0  0
    7.8281   -6.5750    0.0000 C   0  0  0  0  0  0  0  0  0  0  0  0
    9.2327   -4.3893    0.0000 C   0  0  0  0  0  0  0  0  0  0  0  0
    7.3249   -2.9324    0.0000 C   0  0  0  0  0  0  0  0  0  0  0  0
    8.7175   -3.4899    0.0000 O   0  0  0  0  0  0  0  0  0  0  0  0
    7.7475   -1.4932    0.0000 N   0  0  0  0  0  0  0  0  0  0  0  0
    9.2204   -1.7771    0.0000 C   0  0  0  0  0  0  0  0  0  0  0  0
  1  2  1  0
  2  3  2  0
  3  4  1  0
  4  5  1  0
  5  6  1  6
  5  7  1  0
  7  8  1  6
  7  9  1  0
  9 10  1  6
 10 11  2  0
 10 12  1  0
 12 13  1  0
 13 14  1  6
 14 15  1  0
 13 16  1  0
 16 17  2  0
 16 18  1  0
 18 19  1  0
 18 20  1  0
 20 21  1  0
 21 22  2  0
 21 23  1  0
 23 24  1  0
 23 25  1  0
 25 26  1  6
 26 27  1  0
 27 28  1  0
 27 29  1  0
 25 30  1  0
 30 31  2  0
 30 32  1  0
 32 33  1  0
 33 34  1  6
 34 35  1  0
 34 36  1  0
 33 37  1  0
 37 38  2  0
 37 39  1  0
 39 40  1  0
 39 41  1  0
 41 42  1  6
 42 43  1  0
 43 44  1  0
 43 45  1  0
 41 46  1  0
 46 47  2  0
 46 48  1  0
 48 49  1  0
 49 50  1  6
 49 51  1  0
 51 52  2  0
 51 53  1  0
 53 54  1  0
 54 55  1  1
 54 56  1  0
 56 57  2  0
 56 58  1  0
 58 59  1  0
 58 60  1  0
 60 61  1  6
 61 62  1  0
 62 63  1  0
 62 64  1  0
 60 65  1  0
 65 66  2  0
 65 67  1  0
 67 68  1  0
 67 69  1  0
 69 70  1  6
 70 71  1  0
 71 72  1  0
 71 73  1  0
 69 74  1  0
 74 75  2  0
 74 76  1  0
 76 77  1  0
 76 78  1  0
 78 79  1  6
 79 80  1  0
 79 81  1  0
 78 82  1  0
 82 83  2  0
 82 84  1  0
 84 85  1  0
 84  9  1  0
M  END
>  <assay_description>  (34) 
Inhibition of human BSEP expressed in fall armyworm sf9 cell plasma membrane vesicles assessed as reduction in vesicle-associated [3H]-taurocholate transport preincubated for 10 mins prior to ATP addition measured after 15 mins in presence of [3H]-taurocholate by topcount based membrane vesicle transport assay

>  <molecule_pref_name>  (34) 
CYCLOSPORINE

>  <canonical_smiles>  (34) 
C/C=C/C[C@@H](C)[C@@H](O)[C@H]1C(=O)N[C@@H](CC)C(=O)N(C)CC(=O)N(C)[C@@H](CC(C)C)C(=O)N[C@@H](C(C)C)C(=O)N(C)[C@@H](CC(C)C)C(=O)N[C@@H](C)C(=O)N[C@H](C)C(=O)N(C)[C@@H](CC(C)C)C(=O)N(C)[C@@H](CC(C)C)C(=O)N(C)[C@@H](C(C)C)C(=O)N1C

>  <pchembl_value>  (34) 
6.05

>  <standard_type>  (34) 
IC50

>  <standard_relation>  (34) 
=

>  <standard_value>  (34) 
900.0

>  <standard_units>  (34) 
nM

>  <target_pref_name>  (34) 
Bile salt export pump

>  <target_organism>  (34) 
Homo sapiens

$$$$
CHEMBL1324
     RDKit          2D

 20 21  0  0  0  0  0  0  0  0999 V2000
    3.0000    0.0000    0.0000 C   0  0  0  0  0  0  0  0  0  0  0  0
    1.5000    0.0000    0.0000 C   0  0  0  0  0  0  0  0  0  0  0  0
    0.7500   -1.2990    0.0000 C   0  0  0  0  0  0  0  0  0  0  0  0
   -0.7500   -1.2990    0.0000 C   0  0  0  0  0  0  0  0  0  0  0  0
   -1.5000    0.0000    0.0000 C   0  0  0  0  0  0  0  0  0  0  0  0
   -3.0000    0.0000    0.0000 C   0  0  0  0  0  0  0  0  0  0  0  0
   -3.7500   -1.2990    0.0000 O   0  0  0  0  0  0  0  0  0  0  0  0
   -3.7500    1.2990    0.0000 C   0  0  0  0  0  0  0  0  0  0  0  0
   -3.0000    2.5981    0.0000 C   0  0  0  0  0  0  0  0  0  0  0  0
   -3.7500    3.8971    0.0000 C   0  0  0  0  0  0  0  0  0  0  0  0
   -3.0000    5.1962    0.0000 O   0  0  0  0  0  0  0  0  0  0  0  0
   -5.2500    3.8971    0.0000 C   0  0  0  0  0  0  0  0  0  0  0  0
   -6.0000    5.1962    0.0000 O   0  0  0  0  0  0  0  0  0  0  0  0
   -6.0000    2.5981    0.0000 C   0  0  0  0  0  0  0  0  0  0  0  0
   -7.5000    2.5981    0.0000 N   0  0  0  0  0  4  0  0  0  0  0  0
   -8.2500    3.8971    0.0000 O   0  0  0  0  0  0  0  0  0  0  0  0
   -8.2500    1.2990    0.0000 O   0  0  0  0  0  1  0  0  0  0  0  0
   -5.2500    1.2990    0.0000 C   0  0  0  0  0  0  0  0  0  0  0  0
   -0.7500    1.2990    0.0000 C   0  0  0  0  0  0  0  0  0  0  0  0
    0.7500    1.2990    0.0000 C   0  0  0  0  0  0  0  0  0  0  0  0
  1  2  1  0
  2  3  2  0
  3  4  1  0
  4  5  2  0
  5  6  1  0
  6  7  2  0
  6  8  1  0
  8  9  2  0
  9 10  1  0
 10 11  1  0
 10 12  2  0
 12 13  1  0
 12 14  1  0
 14 15  1  0
 15 16  2  0
 15 17  1  0
 14 18  2  0
  5 19  1  0
 19 20  2  0
 20  2  1  0
 18  8  1  0
M  CHG  2  15   1  17  -1
M  END
>  <assay_description>  (35) 
Inhibition of human BSEP expressed in fall armyworm sf9 cell plasma membrane vesicles assessed as reduction in vesicle-associated [3H]-taurocholate transport preincubated for 10 mins prior to ATP addition measured after 15 mins in presence of [3H]-taurocholate by topcount based membrane vesicle transport assay

>  <molecule_pref_name>  (35) 
TOLCAPONE

>  <canonical_smiles>  (35) 
Cc1ccc(C(=O)c2cc(O)c(O)c([N+](=O)[O-])c2)cc1

>  <pchembl_value>  (35) 
4.46

>  <standard_type>  (35) 
IC50

>  <standard_relation>  (35) 
=

>  <standard_value>  (35) 
34500.0

>  <standard_units>  (35) 
nM

>  <target_pref_name>  (35) 
Bile salt export pump

>  <target_organism>  (35) 
Homo sapiens

$$$$
CHEMBL475534
     RDKit          2D

 26 27  0  0  0  0  0  0  0  0999 V2000
    6.0000   -2.5981    0.0000 C   0  0  0  0  0  0  0  0  0  0  0  0
    5.2500   -1.2990    0.0000 C   0  0  0  0  0  0  0  0  0  0  0  0
    3.7500   -1.2990    0.0000 O   0  0  0  0  0  0  0  0  0  0  0  0
    3.0000    0.0000    0.0000 C   0  0  0  0  0  0  0  0  0  0  0  0
    3.7500    1.2990    0.0000 O   0  0  0  0  0  0  0  0  0  0  0  0
    1.5000    0.0000    0.0000 C   0  0  0  0  0  0  0  0  0  0  0  0
    0.7500   -1.2990    0.0000 C   0  0  0  0  0  0  0  0  0  0  0  0
    1.5000   -2.5981    0.0000 C   0  0  0  0  0  0  0  0  0  0  0  0
   -0.7500   -1.2990    0.0000 N   0  0  0  0  0  0  0  0  0  0  0  0
   -1.5000    0.0000    0.0000 C   0  0  0  0  0  0  0  0  0  0  0  0
   -3.0000    0.0000    0.0000 C   0  0  0  0  0  0  0  0  0  0  0  0
   -0.7500    1.2990    0.0000 C   0  0  0  0  0  0  0  0  0  0  0  0
   -1.5000    2.5981    0.0000 C   0  0  0  0  0  0  0  0  0  0  0  0
   -0.7500    3.8971    0.0000 O   0  0  0  0  0  0  0  0  0  0  0  0
   -3.0000    2.5981    0.0000 O   0  0  0  0  0  0  0  0  0  0  0  0
   -3.7500    3.8971    0.0000 C   0  0  0  0  0  0  0  0  0  0  0  0
    0.7500    1.2990    0.0000 C   0  0  0  0  0  0  0  0  0  0  0  0
    1.5000    2.5981    0.0000 C   0  0  0  0  0  0  0  0  0  0  0  0
    3.0000    2.5981    0.0000 C   0  0  0  0  0  0  0  0  0  0  0  0
    3.7500    3.8971    0.0000 C   0  0  0  0  0  0  0  0  0  0  0  0
    3.0000    5.1962    0.0000 C   0  0  0  0  0  0  0  0  0  0  0  0
    1.5000    5.1962    0.0000 C   0  0  0  0  0  0  0  0  0  0  0  0
    0.7500    6.4952    0.0000 N   0  0  0  0  0  4  0  0  0  0  0  0
   -0.7500    6.4952    0.0000 O   0  0  0  0  0  0  0  0  0  0  0  0
    1.5000    7.7942    0.0000 O   0  0  0  0  0  1  0  0  0  0  0  0
    0.7500    3.8971    0.0000 C   0  0  0  0  0  0  0  0  0  0  0  0
  1  2  1  0
  2  3  1  0
  3  4  1  0
  4  5  2  0
  4  6  1  0
  6  7  2  0
  7  8  1  0
  7  9  1  0
  9 10  1  0
 10 11  1  0
 10 12  2  0
 12 13  1  0
 13 14  2  0
 13 15  1  0
 15 16  1  0
 12 17  1  0
 17 18  1  0
 18 19  2  0
 19 20  1  0
 20 21  2  0
 21 22  1  0
 22 23  1  0
 23 24  2  0
 23 25  1  0
 22 26  2  0
 17  6  1  0
 26 18  1  0
M  CHG  2  23   1  25  -1
M  END
>  <assay_description>  (36) 
Inhibition of human BSEP expressed in fall armyworm sf9 cell plasma membrane vesicles assessed as reduction in vesicle-associated [3H]-taurocholate transport preincubated for 10 mins prior to ATP addition measured after 15 mins in presence of [3H]-taurocholate by topcount based membrane vesicle transport assay

>  <molecule_pref_name>  (36) 
NITRENDIPINE

>  <canonical_smiles>  (36) 
CCOC(=O)C1=C(C)NC(C)=C(C(=O)OC)C1c1cccc([N+](=O)[O-])c1

>  <pchembl_value>  (36) 
4.60

>  <standard_type>  (36) 
IC50

>  <standard_relation>  (36) 
=

>  <standard_value>  (36) 
25000.0

>  <standard_units>  (36) 
nM

>  <target_pref_name>  (36) 
Bile salt export pump

>  <target_organism>  (36) 
Homo sapiens

$$$$
CHEMBL633
     RDKit          2D

 31 33  0  0  0  0  0  0  0  0999 V2000
    2.5981   -8.1073    0.0000 C   0  0  0  0  0  0  0  0  0  0  0  0
    1.2990   -7.3573    0.0000 C   0  0  0  0  0  0  0  0  0  0  0  0
    1.2990   -5.8573    0.0000 C   0  0  0  0  0  0  0  0  0  0  0  0
   -0.0000   -5.1073    0.0000 C   0  0  0  0  0  0  0  0  0  0  0  0
   -0.0000   -3.6073    0.0000 C   0  0  0  0  0  0  0  0  0  0  0  0
    1.2135   -2.7256    0.0000 O   0  0  0  0  0  0  0  0  0  0  0  0
    0.7500   -1.2990    0.0000 C   0  0  0  0  0  0  0  0  0  0  0  0
    1.5000    0.0000    0.0000 C   0  0  0  0  0  0  0  0  0  0  0  0
    0.7500    1.2990    0.0000 C   0  0  0  0  0  0  0  0  0  0  0  0
   -0.7500    1.2990    0.0000 C   0  0  0  0  0  0  0  0  0  0  0  0
   -1.5000    0.0000    0.0000 C   0  0  0  0  0  0  0  0  0  0  0  0
   -0.7500   -1.2990    0.0000 C   0  0  0  0  0  0  0  0  0  0  0  0
   -1.2135   -2.7256    0.0000 C   0  0  0  0  0  0  0  0  0  0  0  0
   -2.6401   -3.1891    0.0000 C   0  0  0  0  0  0  0  0  0  0  0  0
   -3.7548   -2.1855    0.0000 O   0  0  0  0  0  0  0  0  0  0  0  0
   -2.9520   -4.6564    0.0000 C   0  0  0  0  0  0  0  0  0  0  0  0
   -4.3786   -5.1199    0.0000 C   0  0  0  0  0  0  0  0  0  0  0  0
   -4.6904   -6.5871    0.0000 C   0  0  0  0  0  0  0  0  0  0  0  0
   -6.1170   -7.0506    0.0000 I   0  0  0  0  0  0  0  0  0  0  0  0
   -3.5757   -7.5908    0.0000 C   0  0  0  0  0  0  0  0  0  0  0  0
   -3.8876   -9.0580    0.0000 O   0  0  0  0  0  0  0  0  0  0  0  0
   -2.7729  -10.0617    0.0000 C   0  0  0  0  0  0  0  0  0  0  0  0
   -3.0847  -11.5290    0.0000 C   0  0  0  0  0  0  0  0  0  0  0  0
   -1.9700  -12.5326    0.0000 N   0  0  0  0  0  0  0  0  0  0  0  0
   -2.2819  -13.9999    0.0000 C   0  0  0  0  0  0  0  0  0  0  0  0
   -1.1672  -15.0036    0.0000 C   0  0  0  0  0  0  0  0  0  0  0  0
   -0.5434  -12.0691    0.0000 C   0  0  0  0  0  0  0  0  0  0  0  0
    0.5713  -13.0728    0.0000 C   0  0  0  0  0  0  0  0  0  0  0  0
   -2.1491   -7.1273    0.0000 C   0  0  0  0  0  0  0  0  0  0  0  0
   -1.0344   -8.1310    0.0000 I   0  0  0  0  0  0  0  0  0  0  0  0
   -1.8373   -5.6601    0.0000 C   0  0  0  0  0  0  0  0  0  0  0  0
  1  2  1  0
  2  3  1  0
  3  4  1  0
  4  5  1  0
  5  6  1  0
  6  7  1  0
  7  8  2  0
  8  9  1  0
  9 10  2  0
 10 11  1  0
 11 12  2  0
 12 13  1  0
 13 14  1  0
 14 15  2  0
 14 16  1  0
 16 17  2  0
 17 18  1  0
 18 19  1  0
 18 20  2  0
 20 21  1  0
 21 22  1  0
 22 23  1  0
 23 24  1  0
 24 25  1  0
 25 26  1  0
 24 27  1  0
 27 28  1  0
 20 29  1  0
 29 30  1  0
 29 31  2  0
 13  5  2  0
 31 16  1  0
 12  7  1  0
M  END
>  <assay_description>  (37) 
Inhibition of human BSEP expressed in fall armyworm sf9 cell plasma membrane vesicles assessed as reduction in vesicle-associated [3H]-taurocholate transport preincubated for 10 mins prior to ATP addition measured after 15 mins in presence of [3H]-taurocholate by topcount based membrane vesicle transport assay

>  <molecule_pref_name>  (37) 
AMIODARONE

>  <canonical_smiles>  (37) 
CCCCc1oc2ccccc2c1C(=O)c1cc(I)c(OCCN(CC)CC)c(I)c1

>  <pchembl_value>  (37) 
4.60

>  <standard_type>  (37) 
IC50

>  <standard_relation>  (37) 
=

>  <standard_value>  (37) 
25000.0

>  <standard_units>  (37) 
nM

>  <target_pref_name>  (37) 
Bile salt export pump

>  <target_organism>  (37) 
Homo sapiens

$$$$
CHEMBL45816
     RDKit          2D

 36 39  0  0  0  0  0  0  0  0999 V2000
   -5.4996   -8.3906    0.0000 C   0  0  0  0  0  0  0  0  0  0  0  0
   -4.0900   -7.8776    0.0000 O   0  0  0  0  0  0  0  0  0  0  0  0
   -3.8296   -6.4004    0.0000 C   0  0  0  0  0  0  0  0  0  0  0  0
   -2.4200   -5.8874    0.0000 C   0  0  0  0  0  0  0  0  0  0  0  0
   -1.2709   -6.8515    0.0000 O   0  0  0  0  0  0  0  0  0  0  0  0
   -2.1595   -4.4101    0.0000 O   0  0  0  0  0  0  0  0  0  0  0  0
   -0.7500   -3.8971    0.0000 C   0  0  0  0  0  0  0  0  0  0  0  0
   -0.4895   -5.3743    0.0000 C   0  0  0  0  0  0  0  0  0  0  0  0
    0.9200   -5.8874    0.0000 C   0  0  0  0  0  0  0  0  0  0  0  0
    1.1805   -7.3646    0.0000 N   0  0  0  0  0  0  0  0  0  0  0  0
    2.5900   -7.8776    0.0000 C   0  0  0  0  0  0  0  0  0  0  0  0
    0.0314   -8.3287    0.0000 C   0  0  0  0  0  0  0  0  0  0  0  0
    0.2919   -9.8060    0.0000 C   0  0  0  0  0  0  0  0  0  0  0  0
   -0.8572  -10.7701    0.0000 C   0  0  0  0  0  0  0  0  0  0  0  0
   -0.5967  -12.2474    0.0000 C   0  0  0  0  0  0  0  0  0  0  0  0
    0.7515  -12.9049    0.0000 N   0  0  0  0  0  0  0  0  0  0  0  0
    0.5427  -14.3903    0.0000 C   0  0  0  0  0  0  0  0  0  0  0  0
    1.5069  -15.5394    0.0000 C   0  0  0  0  0  0  0  0  0  0  0  0
    0.9939  -16.9489    0.0000 C   0  0  0  0  0  0  0  0  0  0  0  0
   -0.4833  -17.2094    0.0000 C   0  0  0  0  0  0  0  0  0  0  0  0
   -1.4475  -16.0603    0.0000 C   0  0  0  0  0  0  0  0  0  0  0  0
   -0.9345  -14.6508    0.0000 C   0  0  0  0  0  0  0  0  0  0  0  0
   -1.6387  -13.3264    0.0000 N   0  0  0  0  0  0  0  0  0  0  0  0
    0.7500   -3.8971    0.0000 C   0  0  0  0  0  0  0  0  0  0  0  0
    1.5000   -2.5981    0.0000 C   0  0  0  0  0  0  0  0  0  0  0  0
    0.7500   -1.2990    0.0000 C   0  0  0  0  0  0  0  0  0  0  0  0
    1.5000    0.0000    0.0000 C   0  0  0  0  0  0  0  0  0  0  0  0
    0.7500    1.2990    0.0000 C   0  0  0  0  0  0  0  0  0  0  0  0
    1.5000    2.5981    0.0000 F   0  0  0  0  0  0  0  0  0  0  0  0
   -0.7500    1.2990    0.0000 C   0  0  0  0  0  0  0  0  0  0  0  0
   -1.5000    0.0000    0.0000 C   0  0  0  0  0  0  0  0  0  0  0  0
   -0.7500   -1.2990    0.0000 C   0  0  0  0  0  0  0  0  0  0  0  0
   -1.5000   -2.5981    0.0000 C   0  0  0  0  0  0  0  0  0  0  0  0
   -3.0000   -2.5981    0.0000 C   0  0  0  0  0  0  0  0  0  0  0  0
   -3.7500   -3.8971    0.0000 C   0  0  0  0  0  0  0  0  0  0  0  0
   -3.7500   -1.2990    0.0000 C   0  0  0  0  0  0  0  0  0  0  0  0
  1  2  1  0
  2  3  1  0
  3  4  1  0
  4  5  2  0
  4  6  1  0
  6  7  1  0
  7  8  1  6
  8  9  1  0
  9 10  1  0
 10 11  1  0
 10 12  1  0
 12 13  1  0
 13 14  1  0
 14 15  1  0
 15 16  2  0
 16 17  1  0
 17 18  2  0
 18 19  1  0
 19 20  2  0
 20 21  1  0
 21 22  2  0
 22 23  1  0
  7 24  1  0
 24 25  1  0
 25 26  1  0
 26 27  2  0
 27 28  1  0
 28 29  1  0
 28 30  2  0
 30 31  1  0
 31 32  2  0
 32 33  1  0
 33 34  1  1
 34 35  1  0
 34 36  1  0
 33  7  1  0
 23 15  1  0
 32 26  1  0
 22 17  1  0
M  END
>  <assay_description>  (38) 
Inhibition of human BSEP expressed in fall armyworm sf9 cell plasma membrane vesicles assessed as reduction in vesicle-associated [3H]-taurocholate transport preincubated for 10 mins prior to ATP addition measured after 15 mins in presence of [3H]-taurocholate by topcount based membrane vesicle transport assay

>  <molecule_pref_name>  (38) 
MIBEFRADIL

>  <canonical_smiles>  (38) 
COCC(=O)O[C@]1(CCN(C)CCCc2nc3ccccc3[nH]2)CCc2cc(F)ccc2[C@@H]1C(C)C

>  <pchembl_value>  (38) 
4.60

>  <standard_type>  (38) 
IC50

>  <standard_relation>  (38) 
=

>  <standard_value>  (38) 
25000.0

>  <standard_units>  (38) 
nM

>  <target_pref_name>  (38) 
Bile salt export pump

>  <target_organism>  (38) 
Homo sapiens

$$$$
CHEMBL451
     RDKit          2D

 21 23  0  0  0  0  0  0  0  0999 V2000
    2.3006   -6.3527    0.0000 C   0  0  0  0  0  0  0  0  0  0  0  0
    2.5242   -4.8694    0.0000 N   0  0  0  0  0  0  0  0  0  0  0  0
    1.3515   -3.9342    0.0000 C   0  0  0  0  0  0  0  0  0  0  0  0
    1.6852   -2.4718    0.0000 N   0  0  0  0  0  0  0  0  0  0  0  0
    0.7500   -1.2990    0.0000 C   0  0  0  0  0  0  0  0  0  0  0  0
    1.5000    0.0000    0.0000 C   0  0  0  0  0  0  0  0  0  0  0  0
    0.7500    1.2990    0.0000 C   0  0  0  0  0  0  0  0  0  0  0  0
   -0.7500    1.2990    0.0000 C   0  0  0  0  0  0  0  0  0  0  0  0
   -1.5000    2.5981    0.0000 Cl  0  0  0  0  0  0  0  0  0  0  0  0
   -1.5000    0.0000    0.0000 C   0  0  0  0  0  0  0  0  0  0  0  0
   -0.7500   -1.2990    0.0000 C   0  0  0  0  0  0  0  0  0  0  0  0
   -1.6852   -2.4718    0.0000 C   0  0  0  0  0  0  0  0  0  0  0  0
   -3.1476   -2.1380    0.0000 C   0  0  0  0  0  0  0  0  0  0  0  0
   -3.5898   -0.7046    0.0000 C   0  0  0  0  0  0  0  0  0  0  0  0
   -5.0522   -0.3709    0.0000 C   0  0  0  0  0  0  0  0  0  0  0  0
   -6.0724   -1.4704    0.0000 C   0  0  0  0  0  0  0  0  0  0  0  0
   -5.6303   -2.9038    0.0000 C   0  0  0  0  0  0  0  0  0  0  0  0
   -4.1679   -3.2376    0.0000 C   0  0  0  0  0  0  0  0  0  0  0  0
   -1.3515   -3.9342    0.0000 N   0  0  0  0  0  4  0  0  0  0  0  0
   -2.5242   -4.8694    0.0000 O   0  0  0  0  0  1  0  0  0  0  0  0
   -0.0000   -4.5850    0.0000 C   0  0  0  0  0  0  0  0  0  0  0  0
  1  2  1  0
  2  3  1  0
  3  4  2  0
  4  5  1  0
  5  6  2  0
  6  7  1  0
  7  8  2  0
  8  9  1  0
  8 10  1  0
 10 11  2  0
 11 12  1  0
 12 13  1  0
 13 14  2  0
 14 15  1  0
 15 16  2  0
 16 17  1  0
 17 18  2  0
 12 19  2  0
 19 20  1  0
 19 21  1  0
 21  3  1  0
 11  5  1  0
 18 13  1  0
M  CHG  2  19   1  20  -1
M  END
>  <assay_description>  (39) 
Inhibition of human BSEP expressed in fall armyworm sf9 cell plasma membrane vesicles assessed as reduction in vesicle-associated [3H]-taurocholate transport preincubated for 10 mins prior to ATP addition measured after 15 mins in presence of [3H]-taurocholate by topcount based membrane vesicle transport assay

>  <molecule_pref_name>  (39) 
CHLORDIAZEPOXIDE

>  <canonical_smiles>  (39) 
CNC1=Nc2ccc(Cl)cc2C(c2ccccc2)=[N+]([O-])C1

>  <pchembl_value>  (39) 
4.60

>  <standard_type>  (39) 
IC50

>  <standard_relation>  (39) 
=

>  <standard_value>  (39) 
25000.0

>  <standard_units>  (39) 
nM

>  <target_pref_name>  (39) 
Bile salt export pump

>  <target_organism>  (39) 
Homo sapiens

$$$$
CHEMBL116
     RDKit          2D

 35 37  0  0  0  0  0  0  0  0999 V2000
    0.7500  -11.6913    0.0000 C   0  0  0  0  0  0  0  0  0  0  0  0
    1.5000  -10.3923    0.0000 C   0  0  0  0  0  0  0  0  0  0  0  0
    3.0000  -10.3923    0.0000 C   0  0  0  0  0  0  0  0  0  0  0  0
    0.7500   -9.0933    0.0000 C   0  0  0  0  0  0  0  0  0  0  0  0
    1.5000   -7.7942    0.0000 N   0  0  0  0  0  0  0  0  0  0  0  0
    0.7500   -6.4952    0.0000 C   0  0  0  0  0  0  0  0  0  0  0  0
    1.5000   -5.1962    0.0000 C   0  0  0  0  0  0  0  0  0  0  0  0
    3.0000   -5.1962    0.0000 O   0  0  0  0  0  0  0  0  0  0  0  0
    0.7500   -3.8971    0.0000 C   0  0  0  0  0  0  0  0  0  0  0  0
    1.5000   -2.5981    0.0000 C   0  0  0  0  0  0  0  0  0  0  0  0
    0.7500   -1.2990    0.0000 C   0  0  0  0  0  0  0  0  0  0  0  0
    1.5000    0.0000    0.0000 C   0  0  0  0  0  0  0  0  0  0  0  0
    0.7500    1.2990    0.0000 C   0  0  0  0  0  0  0  0  0  0  0  0
   -0.7500    1.2990    0.0000 C   0  0  0  0  0  0  0  0  0  0  0  0
   -1.5000    0.0000    0.0000 C   0  0  0  0  0  0  0  0  0  0  0  0
   -0.7500   -1.2990    0.0000 C   0  0  0  0  0  0  0  0  0  0  0  0
   -0.7500   -3.8971    0.0000 N   0  0  0  0  0  0  0  0  0  0  0  0
   -1.5000   -5.1962    0.0000 C   0  0  0  0  0  0  0  0  0  0  0  0
   -0.7500   -6.4952    0.0000 O   0  0  0  0  0  0  0  0  0  0  0  0
   -3.0000   -5.1962    0.0000 O   0  0  0  0  0  0  0  0  0  0  0  0
   -3.7500   -6.4952    0.0000 C   0  0  0  0  0  0  0  0  0  0  0  0
   -3.1399   -7.8655    0.0000 C   0  0  0  0  0  0  0  0  0  0  0  0
   -4.2546   -8.8692    0.0000 C   0  0  0  0  0  0  0  0  0  0  0  0
   -5.5537   -8.1192    0.0000 O   0  0  0  0  0  0  0  0  0  0  0  0
   -5.2418   -6.6520    0.0000 C   0  0  0  0  0  0  0  0  0  0  0  0
    3.0000   -7.7942    0.0000 S   0  0  0  0  0  0  0  0  0  0  0  0
    3.0000   -6.2942    0.0000 O   0  0  0  0  0  0  0  0  0  0  0  0
    3.0000   -9.2942    0.0000 O   0  0  0  0  0  0  0  0  0  0  0  0
    4.5000   -7.7942    0.0000 C   0  0  0  0  0  0  0  0  0  0  0  0
    5.2500   -9.0933    0.0000 C   0  0  0  0  0  0  0  0  0  0  0  0
    6.7500   -9.0933    0.0000 C   0  0  0  0  0  0  0  0  0  0  0  0
    7.5000   -7.7942    0.0000 C   0  0  0  0  0  0  0  0  0  0  0  0
    9.0000   -7.7942    0.0000 N   0  0  0  0  0  0  0  0  0  0  0  0
    6.7500   -6.4952    0.0000 C   0  0  0  0  0  0  0  0  0  0  0  0
    5.2500   -6.4952    0.0000 C   0  0  0  0  0  0  0  0  0  0  0  0
  1  2  1  0
  2  3  1  0
  2  4  1  0
  4  5  1  0
  5  6  1  0
  6  7  1  0
  7  8  1  6
  7  9  1  0
  9 10  1  1
 10 11  1  0
 11 12  2  0
 12 13  1  0
 13 14  2  0
 14 15  1  0
 15 16  2  0
  9 17  1  0
 17 18  1  0
 18 19  2  0
 18 20  1  0
 21 20  1  1
 21 22  1  0
 22 23  1  0
 23 24  1  0
 24 25  1  0
  5 26  1  0
 26 27  2  0
 26 28  2  0
 26 29  1  0
 29 30  2  0
 30 31  1  0
 31 32  2  0
 32 33  1  0
 32 34  1  0
 34 35  2  0
 16 11  1  0
 25 21  1  0
 35 29  1  0
M  END
>  <assay_description>  (40) 
Inhibition of human BSEP expressed in fall armyworm sf9 cell plasma membrane vesicles assessed as reduction in vesicle-associated [3H]-taurocholate transport preincubated for 10 mins prior to ATP addition measured after 15 mins in presence of [3H]-taurocholate by topcount based membrane vesicle transport assay

>  <molecule_pref_name>  (40) 
AMPRENAVIR

>  <canonical_smiles>  (40) 
CC(C)CN(C[C@@H](O)[C@H](Cc1ccccc1)NC(=O)O[C@H]1CCOC1)S(=O)(=O)c1ccc(N)cc1

>  <pchembl_value>  (40) 
4.60

>  <standard_type>  (40) 
IC50

>  <standard_relation>  (40) 
=

>  <standard_value>  (40) 
25000.0

>  <standard_units>  (40) 
nM

>  <target_pref_name>  (40) 
Bile salt export pump

>  <target_organism>  (40) 
Homo sapiens

$$$$
CHEMBL416146
     RDKit          2D

 24 26  0  0  0  0  0  0  0  0999 V2000
    3.0000    0.0000    0.0000 C   0  0  0  0  0  0  0  0  0  0  0  0
    1.5000    0.0000    0.0000 C   0  0  0  0  0  0  0  0  0  0  0  0
    0.7500   -1.2990    0.0000 C   0  0  0  0  0  0  0  0  0  0  0  0
   -0.7500   -1.2990    0.0000 C   0  0  0  0  0  0  0  0  0  0  0  0
   -1.5000    0.0000    0.0000 C   0  0  0  0  0  0  0  0  0  0  0  0
   -3.0000    0.0000    0.0000 C   0  0  0  0  0  0  0  0  0  0  0  0
   -3.7500    1.2990    0.0000 N   0  0  0  0  0  0  0  0  0  0  0  0
   -5.2500    1.2990    0.0000 C   0  0  0  0  0  0  0  0  0  0  0  0
   -6.0000    0.0000    0.0000 C   0  0  0  0  0  0  0  0  0  0  0  0
   -7.5000    0.0000    0.0000 Cl  0  0  0  0  0  0  0  0  0  0  0  0
   -5.2500   -1.2990    0.0000 C   0  0  0  0  0  0  0  0  0  0  0  0
   -3.7500   -1.2990    0.0000 C   0  0  0  0  0  0  0  0  0  0  0  0
   -3.0000   -2.5981    0.0000 C   0  0  0  0  0  0  0  0  0  0  0  0
   -3.7500   -3.8971    0.0000 C   0  0  0  0  0  0  0  0  0  0  0  0
   -3.0000   -5.1962    0.0000 C   0  0  0  0  0  0  0  0  0  0  0  0
   -1.5000   -5.1962    0.0000 C   0  0  0  0  0  0  0  0  0  0  0  0
   -0.7500   -6.4952    0.0000 S   0  0  0  0  0  0  0  0  0  0  0  0
   -0.0000   -7.7942    0.0000 C   0  0  0  0  0  0  0  0  0  0  0  0
    0.5490   -5.7452    0.0000 O   0  0  0  0  0  0  0  0  0  0  0  0
   -2.0490   -7.2452    0.0000 O   0  0  0  0  0  0  0  0  0  0  0  0
   -0.7500   -3.8971    0.0000 C   0  0  0  0  0  0  0  0  0  0  0  0
   -1.5000   -2.5981    0.0000 C   0  0  0  0  0  0  0  0  0  0  0  0
   -0.7500    1.2990    0.0000 C   0  0  0  0  0  0  0  0  0  0  0  0
    0.7500    1.2990    0.0000 N   0  0  0  0  0  0  0  0  0  0  0  0
  1  2  1  0
  2  3  2  0
  3  4  1  0
  4  5  2  0
  5  6  1  0
  6  7  2  0
  7  8  1  0
  8  9  2  0
  9 10  1  0
  9 11  1  0
 11 12  2  0
 12 13  1  0
 13 14  2  0
 14 15  1  0
 15 16  2  0
 16 17  1  0
 17 18  1  0
 17 19  2  0
 17 20  2  0
 16 21  1  0
 21 22  2  0
  5 23  1  0
 23 24  2  0
 24  2  1  0
 12  6  1  0
 22 13  1  0
M  END
>  <assay_description>  (41) 
Inhibition of human BSEP expressed in fall armyworm sf9 cell plasma membrane vesicles assessed as reduction in vesicle-associated [3H]-taurocholate transport preincubated for 10 mins prior to ATP addition measured after 15 mins in presence of [3H]-taurocholate by topcount based membrane vesicle transport assay

>  <molecule_pref_name>  (41) 
ETORICOXIB

>  <canonical_smiles>  (41) 
Cc1ccc(-c2ncc(Cl)cc2-c2ccc(S(C)(=O)=O)cc2)cn1

>  <pchembl_value>  (41) 
4.35

>  <standard_type>  (41) 
IC50

>  <standard_relation>  (41) 
=

>  <standard_value>  (41) 
45000.0

>  <standard_units>  (41) 
nM

>  <target_pref_name>  (41) 
Bile salt export pump

>  <target_organism>  (41) 
Homo sapiens

$$$$
CHEMBL1162
     RDKit          2D

 22 25  0  0  0  0  0  0  0  0999 V2000
   -4.9635   -9.2208    0.0000 C   0  0  0  0  0  0  0  0  0  0  0  0
   -4.2135   -7.9218    0.0000 C   0  0  0  0  0  0  0  0  0  0  0  0
   -3.4635   -6.6227    0.0000 C   0  0  0  0  0  0  0  0  0  0  0  0
   -4.8980   -6.1842    0.0000 O   0  0  0  0  0  0  0  0  0  0  0  0
   -2.2500   -7.5044    0.0000 C   0  0  0  0  0  0  0  0  0  0  0  0
   -1.0365   -6.6227    0.0000 C   0  0  0  0  0  0  0  0  0  0  0  0
   -1.5000   -5.1962    0.0000 C   0  0  0  0  0  0  0  0  0  0  0  0
   -0.7500   -3.8971    0.0000 C   0  0  0  0  0  0  0  0  0  0  0  0
    0.7500   -3.8971    0.0000 C   0  0  0  0  0  0  0  0  0  0  0  0
    1.5000   -2.5981    0.0000 C   0  0  0  0  0  0  0  0  0  0  0  0
    0.7500   -1.2990    0.0000 C   0  0  0  0  0  0  0  0  0  0  0  0
    1.5000    0.0000    0.0000 C   0  0  0  0  0  0  0  0  0  0  0  0
    0.7500    1.2990    0.0000 C   0  0  0  0  0  0  0  0  0  0  0  0
    1.5000    2.5981    0.0000 O   0  0  0  0  0  0  0  0  0  0  0  0
   -0.7500    1.2990    0.0000 C   0  0  0  0  0  0  0  0  0  0  0  0
   -1.5000    0.0000    0.0000 C   0  0  0  0  0  0  0  0  0  0  0  0
   -0.7500   -1.2990    0.0000 C   0  0  0  0  0  0  0  0  0  0  0  0
   -1.5000   -2.5981    0.0000 C   0  0  0  0  0  0  0  0  0  0  0  0
   -3.0000   -2.5981    0.0000 C   0  0  0  0  0  0  0  0  0  0  0  0
   -3.7500   -3.8971    0.0000 C   0  0  0  0  0  0  0  0  0  0  0  0
   -3.0000   -5.1962    0.0000 C   0  0  0  0  0  0  0  0  0  0  0  0
   -4.4998   -5.1699    0.0000 C   0  0  0  0  0  0  0  0  0  0  0  0
  1  2  3  0
  2  3  1  0
  3  4  1  6
  3  5  1  0
  5  6  1  0
  7  6  1  6
  7  8  1  0
  8  9  1  1
  9 10  1  0
 10 11  1  0
 11 12  2  0
 12 13  1  0
 13 14  2  0
 13 15  1  0
 15 16  1  0
 17 16  1  1
 17 18  1  0
 18 19  1  6
 19 20  1  0
 20 21  1  0
 21 22  1  6
 21  3  1  0
 21  7  1  0
 18  8  1  0
 17 11  1  0
M  END
>  <assay_description>  (42) 
Inhibition of human BSEP expressed in fall armyworm sf9 cell plasma membrane vesicles assessed as reduction in vesicle-associated [3H]-taurocholate transport preincubated for 10 mins prior to ATP addition measured after 15 mins in presence of [3H]-taurocholate by topcount based membrane vesicle transport assay

>  <molecule_pref_name>  (42) 
NORETHINDRONE

>  <canonical_smiles>  (42) 
C#C[C@]1(O)CC[C@H]2[C@@H]3CCC4=CC(=O)CC[C@@H]4[C@H]3CC[C@@]21C

>  <pchembl_value>  (42) 
4.35

>  <standard_type>  (42) 
IC50

>  <standard_relation>  (42) 
=

>  <standard_value>  (42) 
45000.0

>  <standard_units>  (42) 
nM

>  <target_pref_name>  (42) 
Bile salt export pump

>  <target_organism>  (42) 
Homo sapiens

$$$$
CHEMBL893
     RDKit          2D

 30 33  0  0  0  0  0  0  0  0999 V2000
   -5.8185    2.8740    0.0000 C   0  0  0  0  0  0  0  0  0  0  0  0
   -5.5838    4.3555    0.0000 C   0  0  0  0  0  0  0  0  0  0  0  0
   -6.6445    5.4162    0.0000 O   0  0  0  0  0  0  0  0  0  0  0  0
   -5.9635    6.7527    0.0000 N   0  0  0  0  0  0  0  0  0  0  0  0
   -4.4820    6.5180    0.0000 C   0  0  0  0  0  0  0  0  0  0  0  0
   -3.4213    7.5787    0.0000 C   0  0  0  0  0  0  0  0  0  0  0  0
   -3.8096    9.0276    0.0000 C   0  0  0  0  0  0  0  0  0  0  0  0
   -5.2584    9.4158    0.0000 Cl  0  0  0  0  0  0  0  0  0  0  0  0
   -2.7489   10.0882    0.0000 C   0  0  0  0  0  0  0  0  0  0  0  0
   -1.3000    9.7000    0.0000 C   0  0  0  0  0  0  0  0  0  0  0  0
   -0.9118    8.2511    0.0000 C   0  0  0  0  0  0  0  0  0  0  0  0
   -1.9724    7.1905    0.0000 C   0  0  0  0  0  0  0  0  0  0  0  0
   -1.4667    5.9388    0.0000 Cl  0  0  0  0  0  0  0  0  0  0  0  0
   -4.2473    5.0365    0.0000 C   0  0  0  0  0  0  0  0  0  0  0  0
   -2.9108    4.3555    0.0000 C   0  0  0  0  0  0  0  0  0  0  0  0
   -1.6974    4.9473    0.0000 O   0  0  0  0  0  0  0  0  0  0  0  0
   -2.8323    2.8576    0.0000 N   0  0  0  0  0  0  0  0  0  0  0  0
   -1.4958    2.1766    0.0000 C   0  0  0  0  0  0  0  0  0  0  0  0
   -0.0692    2.6401    0.0000 C   0  0  0  0  0  0  0  0  0  0  0  0
    0.6118    3.9766    0.0000 O   0  0  0  0  0  0  0  0  0  0  0  0
    0.3943    1.2135    0.0000 N   0  0  0  0  0  0  0  0  0  0  0  0
    1.2760    0.0000    0.0000 C   0  0  0  0  0  0  0  0  0  0  0  0
    2.7760    0.0000    0.0000 C   0  0  0  0  0  0  0  0  0  0  0  0
    3.5260    1.2990    0.0000 O   0  0  0  0  0  0  0  0  0  0  0  0
    3.5260   -1.2990    0.0000 O   0  0  0  0  0  0  0  0  0  0  0  0
    0.3943   -1.2135    0.0000 C   0  0  0  0  0  0  0  0  0  0  0  0
    1.6933   -1.9635    0.0000 C   0  0  0  0  0  0  0  0  0  0  0  0
   -0.2158   -2.5838    0.0000 C   0  0  0  0  0  0  0  0  0  0  0  0
   -1.0323   -0.7500    0.0000 S   0  0  0  0  0  0  0  0  0  0  0  0
   -1.0323    0.7500    0.0000 C   0  0  0  0  0  0  0  0  0  0  0  0
  1  2  1  0
  2  3  1  0
  3  4  1  0
  4  5  2  0
  5  6  1  0
  6  7  2  0
  7  8  1  0
  7  9  1  0
  9 10  2  0
 10 11  1  0
 11 12  2  0
 12 13  1  0
  5 14  1  0
 14 15  1  0
 15 16  2  0
 15 17  1  0
 18 17  1  6
 18 19  1  0
 19 20  2  0
 19 21  1  0
 21 22  1  0
 22 23  1  1
 23 24  2  0
 23 25  1  0
 22 26  1  0
 26 27  1  0
 26 28  1  0
 26 29  1  0
 30 29  1  6
 14  2  2  0
 30 18  1  0
 12  6  1  0
 30 21  1  0
M  END
>  <assay_description>  (43) 
Inhibition of human BSEP expressed in fall armyworm sf9 cell plasma membrane vesicles assessed as reduction in vesicle-associated [3H]-taurocholate transport preincubated for 10 mins prior to ATP addition measured after 15 mins in presence of [3H]-taurocholate by topcount based membrane vesicle transport assay

>  <molecule_pref_name>  (43) 
DICLOXACILLIN

>  <canonical_smiles>  (43) 
Cc1onc(-c2c(Cl)cccc2Cl)c1C(=O)N[C@@H]1C(=O)N2[C@@H](C(=O)O)C(C)(C)S[C@H]12

>  <pchembl_value>  (43) 
4.35

>  <standard_type>  (43) 
IC50

>  <standard_relation>  (43) 
=

>  <standard_value>  (43) 
45000.0

>  <standard_units>  (43) 
nM

>  <target_pref_name>  (43) 
Bile salt export pump

>  <target_organism>  (43) 
Homo sapiens

$$$$
CHEMBL211501
     RDKit          2D

 39 40  0  0  0  0  0  0  0  0999 V2000
    8.9429   -3.8971    0.0000 C   0  0  0  0  0  0  0  0  0  0  0  0
    8.1929   -2.5981    0.0000 C   0  0  0  0  0  0  0  0  0  0  0  0
    6.6929   -2.5981    0.0000 C   0  0  0  0  0  0  0  0  0  0  0  0
    5.9429   -1.2990    0.0000 C   0  0  0  0  0  0  0  0  0  0  0  0
    4.4429   -1.2990    0.0000 C   0  0  0  0  0  0  0  0  0  0  0  0
    3.6929    0.0000    0.0000 C   0  0  0  0  0  0  0  0  0  0  0  0
    2.1929    0.0000    0.0000 C   0  0  0  0  0  0  0  0  0  0  0  0
    1.6798    1.4095    0.0000 C   0  0  0  0  0  0  0  0  0  0  0  0
    2.8289    2.3737    0.0000 O   0  0  0  0  0  0  0  0  0  0  0  0
    0.3808    2.1595    0.0000 O   0  0  0  0  0  0  0  0  0  0  0  0
   -1.0964    1.8991    0.0000 C   0  0  0  0  0  0  0  0  0  0  0  0
   -1.8464    3.1981    0.0000 C   0  0  0  0  0  0  0  0  0  0  0  0
   -2.0606    0.7500    0.0000 C   0  0  0  0  0  0  0  0  0  0  0  0
   -3.4701    1.2630    0.0000 N   0  0  0  0  0  0  0  0  0  0  0  0
   -3.7306    2.7402    0.0000 C   0  0  0  0  0  0  0  0  0  0  0  0
   -2.5816    3.7044    0.0000 O   0  0  0  0  0  0  0  0  0  0  0  0
   -5.1402    3.2533    0.0000 C   0  0  0  0  0  0  0  0  0  0  0  0
   -5.4006    4.7305    0.0000 C   0  0  0  0  0  0  0  0  0  0  0  0
   -6.8102    5.2435    0.0000 C   0  0  0  0  0  0  0  0  0  0  0  0
   -7.9592    4.2793    0.0000 C   0  0  0  0  0  0  0  0  0  0  0  0
   -7.6988    2.8021    0.0000 C   0  0  0  0  0  0  0  0  0  0  0  0
   -8.8478    1.8379    0.0000 N   0  0  0  0  0  0  0  0  0  0  0  0
  -10.2574    2.3510    0.0000 C   0  0  0  0  0  0  0  0  0  0  0  0
  -11.4064    1.3868    0.0000 O   0  0  0  0  0  0  0  0  0  0  0  0
   -6.2892    2.2891    0.0000 C   0  0  0  0  0  0  0  0  0  0  0  0
   -6.0288    0.8119    0.0000 O   0  0  0  0  0  0  0  0  0  0  0  0
   -2.0606   -0.7500    0.0000 C   0  0  0  0  0  0  0  0  0  0  0  0
   -3.4701   -1.2630    0.0000 O   0  0  0  0  0  0  0  0  0  0  0  0
   -1.0964   -1.8991    0.0000 O   0  0  0  0  0  0  0  0  0  0  0  0
    0.3808   -2.1595    0.0000 C   0  0  0  0  0  0  0  0  0  0  0  0
    0.6413   -3.6368    0.0000 C   0  0  0  0  0  0  0  0  0  0  0  0
    1.6798   -1.4095    0.0000 C   0  0  0  0  0  0  0  0  0  0  0  0
    2.8289   -2.3737    0.0000 O   0  0  0  0  0  0  0  0  0  0  0  0
    2.5684   -3.8509    0.0000 C   0  0  0  0  0  0  0  0  0  0  0  0
    1.1589   -4.3640    0.0000 O   0  0  0  0  0  0  0  0  0  0  0  0
    3.7175   -4.8151    0.0000 C   0  0  0  0  0  0  0  0  0  0  0  0
    3.4570   -6.2923    0.0000 C   0  0  0  0  0  0  0  0  0  0  0  0
    4.6061   -7.2565    0.0000 C   0  0  0  0  0  0  0  0  0  0  0  0
    2.0475   -6.8054    0.0000 C   0  0  0  0  0  0  0  0  0  0  0  0
  1  2  1  0
  2  3  1  0
  3  4  1  0
  4  5  1  0
  5  6  1  0
  7  6  1  6
  7  8  1  0
  8  9  2  0
  8 10  1  0
 10 11  1  0
 11 12  1  1
 11 13  1  0
 13 14  1  1
 14 15  1  0
 15 16  2  0
 15 17  1  0
 17 18  2  0
 18 19  1  0
 19 20  2  0
 20 21  1  0
 21 22  1  0
 22 23  1  0
 23 24  2  0
 21 25  2  0
 25 26  1  0
 13 27  1  0
 27 28  2  0
 27 29  1  0
 29 30  1  0
 30 31  1  6
 30 32  1  0
 32 33  1  1
 33 34  1  0
 34 35  2  0
 34 36  1  0
 36 37  1  0
 37 38  1  0
 37 39  1  0
 32  7  1  0
 25 17  1  0
M  END
>  <assay_description>  (44) 
Inhibition of human BSEP expressed in fall armyworm sf9 cell plasma membrane vesicles assessed as reduction in vesicle-associated [3H]-taurocholate transport preincubated for 10 mins prior to ATP addition measured after 15 mins in presence of [3H]-taurocholate by topcount based membrane vesicle transport assay

>  <molecule_pref_name>  (44) 
ANTIMYCIN A

>  <canonical_smiles>  (44) 
CCCCCC[C@H]1C(=O)O[C@H](C)[C@H](NC(=O)c2cccc(NC=O)c2O)C(=O)O[C@@H](C)[C@@H]1OC(=O)CC(C)C

>  <pchembl_value>  (44) 
4.35

>  <standard_type>  (44) 
IC50

>  <standard_relation>  (44) 
=

>  <standard_value>  (44) 
45000.0

>  <standard_units>  (44) 
nM

>  <target_pref_name>  (44) 
Bile salt export pump

>  <target_organism>  (44) 
Homo sapiens

$$$$
CHEMBL1381098
     RDKit          2D

 13 14  0  0  0  0  0  0  0  0999 V2000
   -4.5000   -5.1962    0.0000 S   0  0  0  0  0  0  0  0  0  0  0  0
   -3.7500   -3.8971    0.0000 C   0  0  0  0  0  0  0  0  0  0  0  0
   -3.0000   -2.5981    0.0000 N   0  0  0  0  0  0  0  0  0  0  0  0
   -1.5000   -2.5981    0.0000 C   0  0  0  0  0  0  0  0  0  0  0  0
   -0.7500   -3.8971    0.0000 C   0  0  0  0  0  0  0  0  0  0  0  0
    0.7500   -3.8971    0.0000 C   0  0  0  0  0  0  0  0  0  0  0  0
    1.5000   -2.5981    0.0000 C   0  0  0  0  0  0  0  0  0  0  0  0
    0.7500   -1.2990    0.0000 C   0  0  0  0  0  0  0  0  0  0  0  0
    1.5000    0.0000    0.0000 C   0  0  0  0  0  0  0  0  0  0  0  0
    0.7500    1.2990    0.0000 C   0  0  0  0  0  0  0  0  0  0  0  0
   -0.7500    1.2990    0.0000 C   0  0  0  0  0  0  0  0  0  0  0  0
   -1.5000    0.0000    0.0000 C   0  0  0  0  0  0  0  0  0  0  0  0
   -0.7500   -1.2990    0.0000 C   0  0  0  0  0  0  0  0  0  0  0  0
  1  2  2  0
  2  3  2  0
  3  4  1  0
  4  5  2  0
  5  6  1  0
  6  7  2  0
  7  8  1  0
  8  9  2  0
  9 10  1  0
 10 11  2  0
 11 12  1  0
 12 13  2  0
 13  4  1  0
 13  8  1  0
M  END
>  <assay_description>  (45) 
Inhibition of human BSEP expressed in fall armyworm sf9 cell plasma membrane vesicles assessed as reduction in vesicle-associated [3H]-taurocholate transport preincubated for 10 mins prior to ATP addition measured after 15 mins in presence of [3H]-taurocholate by topcount based membrane vesicle transport assay

>  <molecule_pref_name>  (45) 
1-NAPHTHYLISOTHIOCYANATE

>  <canonical_smiles>  (45) 
S=C=Nc1cccc2ccccc12

>  <pchembl_value>  (45) 
4.22

>  <standard_type>  (45) 
IC50

>  <standard_relation>  (45) 
=

>  <standard_value>  (45) 
60000.0

>  <standard_units>  (45) 
nM

>  <target_pref_name>  (45) 
Bile salt export pump

>  <target_organism>  (45) 
Homo sapiens

$$$$
CHEMBL565
     RDKit          2D

 16 16  0  0  0  0  0  0  0  0999 V2000
    3.7500   -6.4952    0.0000 C   0  0  0  0  0  0  0  0  0  0  0  0
    4.5000   -5.1962    0.0000 C   0  0  0  0  0  0  0  0  0  0  0  0
    3.7500   -3.8971    0.0000 O   0  0  0  0  0  0  0  0  0  0  0  0
    4.5000   -2.5981    0.0000 C   0  0  0  0  0  0  0  0  0  0  0  0
    6.0000   -2.5981    0.0000 O   0  0  0  0  0  0  0  0  0  0  0  0
    3.7500   -1.2990    0.0000 C   0  0  0  0  0  0  0  0  0  0  0  0
    5.0490   -0.5490    0.0000 C   0  0  0  0  0  0  0  0  0  0  0  0
    2.4510   -2.0490    0.0000 C   0  0  0  0  0  0  0  0  0  0  0  0
    3.0000    0.0000    0.0000 O   0  0  0  0  0  0  0  0  0  0  0  0
    1.5000    0.0000    0.0000 C   0  0  0  0  0  0  0  0  0  0  0  0
    0.7500   -1.2990    0.0000 C   0  0  0  0  0  0  0  0  0  0  0  0
   -0.7500   -1.2990    0.0000 C   0  0  0  0  0  0  0  0  0  0  0  0
   -1.5000    0.0000    0.0000 C   0  0  0  0  0  0  0  0  0  0  0  0
   -3.0000    0.0000    0.0000 Cl  0  0  0  0  0  0  0  0  0  0  0  0
   -0.7500    1.2990    0.0000 C   0  0  0  0  0  0  0  0  0  0  0  0
    0.7500    1.2990    0.0000 C   0  0  0  0  0  0  0  0  0  0  0  0
  1  2  1  0
  2  3  1  0
  3  4  1  0
  4  5  2  0
  4  6  1  0
  6  7  1  0
  6  8  1  0
  6  9  1  0
  9 10  1  0
 10 11  2  0
 11 12  1  0
 12 13  2  0
 13 14  1  0
 13 15  1  0
 15 16  2  0
 16 10  1  0
M  END
>  <assay_description>  (46) 
Inhibition of human BSEP expressed in fall armyworm sf9 cell plasma membrane vesicles assessed as reduction in vesicle-associated [3H]-taurocholate transport preincubated for 10 mins prior to ATP addition measured after 15 mins in presence of [3H]-taurocholate by topcount based membrane vesicle transport assay

>  <molecule_pref_name>  (46) 
CLOFIBRATE

>  <canonical_smiles>  (46) 
CCOC(=O)C(C)(C)Oc1ccc(Cl)cc1

>  <pchembl_value>  (46) 
4.22

>  <standard_type>  (46) 
IC50

>  <standard_relation>  (46) 
=

>  <standard_value>  (46) 
60000.0

>  <standard_units>  (46) 
nM

>  <target_pref_name>  (46) 
Bile salt export pump

>  <target_organism>  (46) 
Homo sapiens

$$$$
CHEMBL1503
     RDKit          2D

 24 26  0  0  0  0  0  0  0  0999 V2000
    3.7500   -1.2990    0.0000 C   0  0  0  0  0  0  0  0  0  0  0  0
    3.0000    0.0000    0.0000 O   0  0  0  0  0  0  0  0  0  0  0  0
    1.5000    0.0000    0.0000 C   0  0  0  0  0  0  0  0  0  0  0  0
    0.7500   -1.2990    0.0000 C   0  0  0  0  0  0  0  0  0  0  0  0
   -0.7500   -1.2990    0.0000 C   0  0  0  0  0  0  0  0  0  0  0  0
   -1.5000    0.0000    0.0000 C   0  0  0  0  0  0  0  0  0  0  0  0
   -2.9672    0.3119    0.0000 N   0  0  0  0  0  0  0  0  0  0  0  0
   -3.1240    1.8037    0.0000 C   0  0  0  0  0  0  0  0  0  0  0  0
   -4.4231    2.5537    0.0000 S   0  0  0  0  0  3  0  0  0  0  0  0
   -5.7221    1.8037    0.0000 O   0  0  0  0  0  1  0  0  0  0  0  0
   -4.4231    4.0537    0.0000 C   0  0  0  0  0  0  0  0  0  0  0  0
   -5.7221    4.8037    0.0000 C   0  0  0  0  0  0  0  0  0  0  0  0
   -5.7221    6.3037    0.0000 N   0  0  0  0  0  0  0  0  0  0  0  0
   -7.0211    7.0537    0.0000 C   0  0  0  0  0  0  0  0  0  0  0  0
   -8.3202    6.3037    0.0000 C   0  0  0  0  0  0  0  0  0  0  0  0
   -9.6192    7.0537    0.0000 C   0  0  0  0  0  0  0  0  0  0  0  0
   -8.3202    4.8037    0.0000 C   0  0  0  0  0  0  0  0  0  0  0  0
   -9.6192    4.0537    0.0000 O   0  0  0  0  0  0  0  0  0  0  0  0
   -9.6192    2.5537    0.0000 C   0  0  0  0  0  0  0  0  0  0  0  0
   -7.0211    4.0537    0.0000 C   0  0  0  0  0  0  0  0  0  0  0  0
   -7.0211    2.5537    0.0000 C   0  0  0  0  0  0  0  0  0  0  0  0
   -1.7537    2.4138    0.0000 N   0  0  0  0  0  0  0  0  0  0  0  0
   -0.7500    1.2990    0.0000 C   0  0  0  0  0  0  0  0  0  0  0  0
    0.7500    1.2990    0.0000 C   0  0  0  0  0  0  0  0  0  0  0  0
  1  2  1  0
  2  3  1  0
  3  4  2  0
  4  5  1  0
  5  6  2  0
  6  7  1  0
  7  8  1  0
  8  9  1  0
  9 10  1  0
  9 11  1  0
 11 12  1  0
 12 13  2  0
 13 14  1  0
 14 15  2  0
 15 16  1  0
 15 17  1  0
 17 18  1  0
 18 19  1  0
 17 20  2  0
 20 21  1  0
  8 22  2  0
 22 23  1  0
 23 24  2  0
 24  3  1  0
 23  6  1  0
 20 12  1  0
M  CHG  2   9   1  10  -1
M  END
>  <assay_description>  (47) 
Inhibition of human BSEP expressed in fall armyworm sf9 cell plasma membrane vesicles assessed as reduction in vesicle-associated [3H]-taurocholate transport preincubated for 10 mins prior to ATP addition measured after 15 mins in presence of [3H]-taurocholate by topcount based membrane vesicle transport assay

>  <molecule_pref_name>  (47) 
OMEPRAZOLE

>  <canonical_smiles>  (47) 
COc1ccc2[nH]c([S+]([O-])Cc3ncc(C)c(OC)c3C)nc2c1

>  <pchembl_value>  (47) 
4.12

>  <standard_type>  (47) 
IC50

>  <standard_relation>  (47) 
=

>  <standard_value>  (47) 
75000.0

>  <standard_units>  (47) 
nM

>  <target_pref_name>  (47) 
Bile salt export pump

>  <target_organism>  (47) 
Homo sapiens

$$$$
CHEMBL295416
     RDKit          2D

 21 22  0  0  0  0  0  0  0  0999 V2000
    3.0000    0.0000    0.0000 C   0  0  0  0  0  0  0  0  0  0  0  0
    1.5000    0.0000    0.0000 C   0  0  0  0  0  0  0  0  0  0  0  0
    0.7500   -1.2990    0.0000 C   0  0  0  0  0  0  0  0  0  0  0  0
   -0.7500   -1.2990    0.0000 C   0  0  0  0  0  0  0  0  0  0  0  0
   -1.5000    0.0000    0.0000 C   0  0  0  0  0  0  0  0  0  0  0  0
   -0.7500    1.2990    0.0000 C   0  0  0  0  0  0  0  0  0  0  0  0
   -1.5000    2.5981    0.0000 N   0  0  0  0  0  0  0  0  0  0  0  0
   -3.0000    2.5981    0.0000 C   0  0  0  0  0  0  0  0  0  0  0  0
   -3.7500    3.8971    0.0000 C   0  0  0  0  0  0  0  0  0  0  0  0
   -5.2500    3.8971    0.0000 C   0  0  0  0  0  0  0  0  0  0  0  0
   -6.0000    5.1962    0.0000 Cl  0  0  0  0  0  0  0  0  0  0  0  0
   -6.0000    2.5981    0.0000 N   0  0  0  0  0  0  0  0  0  0  0  0
   -5.2500    1.2990    0.0000 C   0  0  0  0  0  0  0  0  0  0  0  0
   -6.0000   -0.0000    0.0000 S   0  0  0  0  0  0  0  0  0  0  0  0
   -7.5000   -0.0000    0.0000 C   0  0  0  0  0  0  0  0  0  0  0  0
   -8.2500   -1.2990    0.0000 C   0  0  0  0  0  0  0  0  0  0  0  0
   -7.5000   -2.5981    0.0000 O   0  0  0  0  0  0  0  0  0  0  0  0
   -9.7500   -1.2990    0.0000 O   0  0  0  0  0  0  0  0  0  0  0  0
   -3.7500    1.2990    0.0000 N   0  0  0  0  0  0  0  0  0  0  0  0
    0.7500    1.2990    0.0000 C   0  0  0  0  0  0  0  0  0  0  0  0
    1.5000    2.5981    0.0000 C   0  0  0  0  0  0  0  0  0  0  0  0
  1  2  1  0
  2  3  2  0
  3  4  1  0
  4  5  2  0
  5  6  1  0
  6  7  1  0
  7  8  1  0
  8  9  2  0
  9 10  1  0
 10 11  1  0
 10 12  2  0
 12 13  1  0
 13 14  1  0
 14 15  1  0
 15 16  1  0
 16 17  2  0
 16 18  1  0
 13 19  2  0
  6 20  2  0
 20 21  1  0
 20  2  1  0
 19  8  1  0
M  END
>  <assay_description>  (48) 
Inhibition of human BSEP expressed in fall armyworm sf9 cell plasma membrane vesicles assessed as reduction in vesicle-associated [3H]-taurocholate transport preincubated for 10 mins prior to ATP addition measured after 15 mins in presence of [3H]-taurocholate by topcount based membrane vesicle transport assay

>  <molecule_pref_name>  (48) 
PIRINIXIC ACID

>  <canonical_smiles>  (48) 
Cc1cccc(Nc2cc(Cl)nc(SCC(=O)O)n2)c1C

>  <pchembl_value>  (48) 
4.12

>  <standard_type>  (48) 
IC50

>  <standard_relation>  (48) 
=

>  <standard_value>  (48) 
75000.0

>  <standard_units>  (48) 
nM

>  <target_pref_name>  (48) 
Bile salt export pump

>  <target_organism>  (48) 
Homo sapiens

$$$$
CHEMBL806
     RDKit          2D

 19 19  0  0  0  0  0  0  0  0999 V2000
    6.0000   -2.5981    0.0000 C   0  0  0  0  0  0  0  0  0  0  0  0
    5.2500   -1.2990    0.0000 C   0  0  0  0  0  0  0  0  0  0  0  0
    6.0000    0.0000    0.0000 C   0  0  0  0  0  0  0  0  0  0  0  0
    3.7500   -1.2990    0.0000 C   0  0  0  0  0  0  0  0  0  0  0  0
    3.0000   -2.5981    0.0000 O   0  0  0  0  0  0  0  0  0  0  0  0
    3.0000    0.0000    0.0000 N   0  0  0  0  0  0  0  0  0  0  0  0
    1.5000    0.0000    0.0000 C   0  0  0  0  0  0  0  0  0  0  0  0
    0.7500   -1.2990    0.0000 C   0  0  0  0  0  0  0  0  0  0  0  0
   -0.7500   -1.2990    0.0000 C   0  0  0  0  0  0  0  0  0  0  0  0
   -1.5000    0.0000    0.0000 C   0  0  0  0  0  0  0  0  0  0  0  0
   -3.0000    0.0000    0.0000 N   0  0  0  0  0  4  0  0  0  0  0  0
   -3.7500    1.2990    0.0000 O   0  0  0  0  0  0  0  0  0  0  0  0
   -3.7500   -1.2990    0.0000 O   0  0  0  0  0  1  0  0  0  0  0  0
   -0.7500    1.2990    0.0000 C   0  0  0  0  0  0  0  0  0  0  0  0
   -1.5000    2.5981    0.0000 C   0  0  0  0  0  0  0  0  0  0  0  0
   -2.2500    3.8971    0.0000 F   0  0  0  0  0  0  0  0  0  0  0  0
   -0.2010    3.3481    0.0000 F   0  0  0  0  0  0  0  0  0  0  0  0
   -2.7990    1.8481    0.0000 F   0  0  0  0  0  0  0  0  0  0  0  0
    0.7500    1.2990    0.0000 C   0  0  0  0  0  0  0  0  0  0  0  0
  1  2  1  0
  2  3  1  0
  2  4  1  0
  4  5  2  0
  4  6  1  0
  6  7  1  0
  7  8  2  0
  8  9  1  0
  9 10  2  0
 10 11  1  0
 11 12  2  0
 11 13  1  0
 10 14  1  0
 14 15  1  0
 15 16  1  0
 15 17  1  0
 15 18  1  0
 14 19  2  0
 19  7  1  0
M  CHG  2  11   1  13  -1
M  END
>  <assay_description>  (49) 
Inhibition of human BSEP expressed in fall armyworm sf9 cell membrane vesicles assessed as reduction in ATP-dependent [3H]-taurocholic acid uptake preincubated for 30 mins prior to [3H]-taurocholic acid addition by liquid scintillation counting

>  <molecule_pref_name>  (49) 
FLUTAMIDE

>  <canonical_smiles>  (49) 
CC(C)C(=O)Nc1ccc([N+](=O)[O-])c(C(F)(F)F)c1

>  <pchembl_value>  (49) 
4.30

>  <standard_type>  (49) 
IC50

>  <standard_relation>  (49) 
=

>  <standard_value>  (49) 
50000.0

>  <standard_units>  (49) 
nM

>  <target_pref_name>  (49) 
Bile salt export pump

>  <target_organism>  (49) 
Homo sapiens

$$$$
CHEMBL806
     RDKit          2D

 19 19  0  0  0  0  0  0  0  0999 V2000
    6.0000   -2.5981    0.0000 C   0  0  0  0  0  0  0  0  0  0  0  0
    5.2500   -1.2990    0.0000 C   0  0  0  0  0  0  0  0  0  0  0  0
    6.0000    0.0000    0.0000 C   0  0  0  0  0  0  0  0  0  0  0  0
    3.7500   -1.2990    0.0000 C   0  0  0  0  0  0  0  0  0  0  0  0
    3.0000   -2.5981    0.0000 O   0  0  0  0  0  0  0  0  0  0  0  0
    3.0000    0.0000    0.0000 N   0  0  0  0  0  0  0  0  0  0  0  0
    1.5000    0.0000    0.0000 C   0  0  0  0  0  0  0  0  0  0  0  0
    0.7500   -1.2990    0.0000 C   0  0  0  0  0  0  0  0  0  0  0  0
   -0.7500   -1.2990    0.0000 C   0  0  0  0  0  0  0  0  0  0  0  0
   -1.5000    0.0000    0.0000 C   0  0  0  0  0  0  0  0  0  0  0  0
   -3.0000    0.0000    0.0000 N   0  0  0  0  0  4  0  0  0  0  0  0
   -3.7500    1.2990    0.0000 O   0  0  0  0  0  0  0  0  0  0  0  0
   -3.7500   -1.2990    0.0000 O   0  0  0  0  0  1  0  0  0  0  0  0
   -0.7500    1.2990    0.0000 C   0  0  0  0  0  0  0  0  0  0  0  0
   -1.5000    2.5981    0.0000 C   0  0  0  0  0  0  0  0  0  0  0  0
   -2.2500    3.8971    0.0000 F   0  0  0  0  0  0  0  0  0  0  0  0
   -0.2010    3.3481    0.0000 F   0  0  0  0  0  0  0  0  0  0  0  0
   -2.7990    1.8481    0.0000 F   0  0  0  0  0  0  0  0  0  0  0  0
    0.7500    1.2990    0.0000 C   0  0  0  0  0  0  0  0  0  0  0  0
  1  2  1  0
  2  3  1  0
  2  4  1  0
  4  5  2  0
  4  6  1  0
  6  7  1  0
  7  8  2  0
  8  9  1  0
  9 10  2  0
 10 11  1  0
 11 12  2  0
 11 13  1  0
 10 14  1  0
 14 15  1  0
 15 16  1  0
 15 17  1  0
 15 18  1  0
 14 19  2  0
 19  7  1  0
M  CHG  2  11   1  13  -1
M  END
>  <assay_description>  (50) 
Inhibition of BSEP in human hepatocytes assessed as reduction in biliary excretion of [3H]-taurocholate in cell lysates after 15 mins by liquid scintillation counting

>  <molecule_pref_name>  (50) 
FLUTAMIDE

>  <canonical_smiles>  (50) 
CC(C)C(=O)Nc1ccc([N+](=O)[O-])c(C(F)(F)F)c1

>  <pchembl_value>  (50) 
4.12

>  <standard_type>  (50) 
IC50

>  <standard_relation>  (50) 
=

>  <standard_value>  (50) 
75000.0

>  <standard_units>  (50) 
nM

>  <target_pref_name>  (50) 
Bile salt export pump

>  <target_organism>  (50) 
Homo sapiens

$$$$
CHEMBL160
     RDKit          2D

 85 85  0  0  0  0  0  0  0  0999 V2000
   12.3901   -5.1962    0.0000 C   0  0  0  0  0  0  0  0  0  0  0  0
   11.6401   -3.8971    0.0000 C   0  0  0  0  0  0  0  0  0  0  0  0
   10.1401   -3.8971    0.0000 C   0  0  0  0  0  0  0  0  0  0  0  0
    9.3901   -2.5981    0.0000 C   0  0  0  0  0  0  0  0  0  0  0  0
   10.1401   -1.2990    0.0000 C   0  0  0  0  0  0  0  0  0  0  0  0
   11.6401   -1.2990    0.0000 C   0  0  0  0  0  0  0  0  0  0  0  0
    9.3901    0.0000    0.0000 C   0  0  0  0  0  0  0  0  0  0  0  0
   10.1401    1.2990    0.0000 O   0  0  0  0  0  0  0  0  0  0  0  0
    7.8901    0.0000    0.0000 C   0  0  0  0  0  0  0  0  0  0  0  0
    7.7475    1.4932    0.0000 C   0  0  0  0  0  0  0  0  0  0  0  0
    9.2204    1.7771    0.0000 O   0  0  0  0  0  0  0  0  0  0  0  0
    7.3249    2.9324    0.0000 N   0  0  0  0  0  0  0  0  0  0  0  0
    6.6376    4.2657    0.0000 C   0  0  0  0  0  0  0  0  0  0  0  0
    7.8994    5.0767    0.0000 C   0  0  0  0  0  0  0  0  0  0  0  0
    9.2327    4.3893    0.0000 C   0  0  0  0  0  0  0  0  0  0  0  0
    5.7103    5.4448    0.0000 C   0  0  0  0  0  0  0  0  0  0  0  0
    6.7959    6.4799    0.0000 O   0  0  0  0  0  0  0  0  0  0  0  0
    4.5767    6.4271    0.0000 N   0  0  0  0  0  0  0  0  0  0  0  0
    5.4468    7.6489    0.0000 C   0  0  0  0  0  0  0  0  0  0  0  0
    3.2777    7.1771    0.0000 C   0  0  0  0  0  0  0  0  0  0  0  0
    1.8602    7.6677    0.0000 C   0  0  0  0  0  0  0  0  0  0  0  0
    2.2138    9.1254    0.0000 O   0  0  0  0  0  0  0  0  0  0  0  0
    0.3754    7.8811    0.0000 N   0  0  0  0  0  0  0  0  0  0  0  0
    0.4468    9.3794    0.0000 C   0  0  0  0  0  0  0  0  0  0  0  0
   -1.1229    7.8098    0.0000 C   0  0  0  0  0  0  0  0  0  0  0  0
   -1.3363    9.2945    0.0000 C   0  0  0  0  0  0  0  0  0  0  0  0
   -0.1573   10.2217    0.0000 C   0  0  0  0  0  0  0  0  0  0  0  0
   -0.3707   11.7065    0.0000 C   0  0  0  0  0  0  0  0  0  0  0  0
    1.2353    9.6642    0.0000 C   0  0  0  0  0  0  0  0  0  0  0  0
   -2.5806    7.4561    0.0000 C   0  0  0  0  0  0  0  0  0  0  0  0
   -3.0712    8.8736    0.0000 O   0  0  0  0  0  0  0  0  0  0  0  0
   -3.9450    6.8330    0.0000 N   0  0  0  0  0  0  0  0  0  0  0  0
   -5.1669    5.9629    0.0000 C   0  0  0  0  0  0  0  0  0  0  0  0
   -6.1492    7.0966    0.0000 C   0  0  0  0  0  0  0  0  0  0  0  0
   -5.6586    8.5141    0.0000 C   0  0  0  0  0  0  0  0  0  0  0  0
   -7.6221    6.8127    0.0000 C   0  0  0  0  0  0  0  0  0  0  0  0
   -6.2020    4.8773    0.0000 C   0  0  0  0  0  0  0  0  0  0  0  0
   -7.3811    5.8046    0.0000 O   0  0  0  0  0  0  0  0  0  0  0  0
   -7.0130    3.6154    0.0000 N   0  0  0  0  0  0  0  0  0  0  0  0
   -8.3462    4.3028    0.0000 C   0  0  0  0  0  0  0  0  0  0  0  0
   -7.5705    2.2229    0.0000 C   0  0  0  0  0  0  0  0  0  0  0  0
   -9.0097    2.6455    0.0000 C   0  0  0  0  0  0  0  0  0  0  0  0
   -9.3634    4.1032    0.0000 C   0  0  0  0  0  0  0  0  0  0  0  0
  -10.8026    4.5258    0.0000 C   0  0  0  0  0  0  0  0  0  0  0  0
   -8.2778    5.1383    0.0000 C   0  0  0  0  0  0  0  0  0  0  0  0
   -7.8544    0.7500    0.0000 C   0  0  0  0  0  0  0  0  0  0  0  0
   -9.3476    0.8926    0.0000 O   0  0  0  0  0  0  0  0  0  0  0  0
   -7.8544   -0.7500    0.0000 N   0  0  0  0  0  0  0  0  0  0  0  0
   -7.5705   -2.2229    0.0000 C   0  0  0  0  0  0  0  0  0  0  0  0
   -9.0097   -2.6455    0.0000 C   0  0  0  0  0  0  0  0  0  0  0  0
   -7.0130   -3.6154    0.0000 C   0  0  0  0  0  0  0  0  0  0  0  0
   -8.3462   -4.3028    0.0000 O   0  0  0  0  0  0  0  0  0  0  0  0
   -6.2020   -4.8773    0.0000 N   0  0  0  0  0  0  0  0  0  0  0  0
   -5.1669   -5.9629    0.0000 C   0  0  0  0  0  0  0  0  0  0  0  0
   -6.1492   -7.0966    0.0000 C   0  0  0  0  0  0  0  0  0  0  0  0
   -3.9450   -6.8330    0.0000 C   0  0  0  0  0  0  0  0  0  0  0  0
   -4.6950   -8.1320    0.0000 O   0  0  0  0  0  0  0  0  0  0  0  0
   -2.5806   -7.4561    0.0000 N   0  0  0  0  0  0  0  0  0  0  0  0
   -3.0712   -8.8736    0.0000 C   0  0  0  0  0  0  0  0  0  0  0  0
   -1.1229   -7.8098    0.0000 C   0  0  0  0  0  0  0  0  0  0  0  0
   -1.3363   -9.2945    0.0000 C   0  0  0  0  0  0  0  0  0  0  0  0
   -2.7289   -9.8520    0.0000 C   0  0  0  0  0  0  0  0  0  0  0  0
   -2.9424  -11.3367    0.0000 C   0  0  0  0  0  0  0  0  0  0  0  0
   -3.9080   -8.9248    0.0000 C   0  0  0  0  0  0  0  0  0  0  0  0
    0.3754   -7.8811    0.0000 C   0  0  0  0  0  0  0  0  0  0  0  0
    0.4468   -9.3794    0.0000 O   0  0  0  0  0  0  0  0  0  0  0  0
    1.8602   -7.6677    0.0000 N   0  0  0  0  0  0  0  0  0  0  0  0
    2.2138   -9.1254    0.0000 C   0  0  0  0  0  0  0  0  0  0  0  0
    3.2777   -7.1771    0.0000 C   0  0  0  0  0  0  0  0  0  0  0  0
    3.9008   -8.5415    0.0000 C   0  0  0  0  0  0  0  0  0  0  0  0
    3.0307   -9.7634    0.0000 C   0  0  0  0  0  0  0  0  0  0  0  0
    3.6538  -11.1278    0.0000 C   0  0  0  0  0  0  0  0  0  0  0  0
    1.5375   -9.6208    0.0000 C   0  0  0  0  0  0  0  0  0  0  0  0
    4.5767   -6.4271    0.0000 C   0  0  0  0  0  0  0  0  0  0  0  0
    5.4468   -7.6489    0.0000 O   0  0  0  0  0  0  0  0  0  0  0  0
    5.7103   -5.4448    0.0000 N   0  0  0  0  0  0  0  0  0  0  0  0
    6.7959   -6.4799    0.0000 C   0  0  0  0  0  0  0  0  0  0  0  0
    6.6376   -4.2657    0.0000 C   0  0  0  0  0  0  0  0  0  0  0  0
    7.8994   -5.0767    0.0000 C   0  0  0  0  0  0  0  0  0  0  0  0
    7.8281   -6.5750    0.0000 C   0  0  0  0  0  0  0  0  0  0  0  0
    9.2327   -4.3893    0.0000 C   0  0  0  0  0  0  0  0  0  0  0  0
    7.3249   -2.9324    0.0000 C   0  0  0  0  0  0  0  0  0  0  0  0
    8.7175   -3.4899    0.0000 O   0  0  0  0  0  0  0  0  0  0  0  0
    7.7475   -1.4932    0.0000 N   0  0  0  0  0  0  0  0  0  0  0  0
    9.2204   -1.7771    0.0000 C   0  0  0  0  0  0  0  0  0  0  0  0
  1  2  1  0
  2  3  2  0
  3  4  1  0
  4  5  1  0
  5  6  1  6
  5  7  1  0
  7  8  1  6
  7  9  1  0
  9 10  1  6
 10 11  2  0
 10 12  1  0
 12 13  1  0
 13 14  1  6
 14 15  1  0
 13 16  1  0
 16 17  2  0
 16 18  1  0
 18 19  1  0
 18 20  1  0
 20 21  1  0
 21 22  2  0
 21 23  1  0
 23 24  1  0
 23 25  1  0
 25 26  1  6
 26 27  1  0
 27 28  1  0
 27 29  1  0
 25 30  1  0
 30 31  2  0
 30 32  1  0
 32 33  1  0
 33 34  1  6
 34 35  1  0
 34 36  1  0
 33 37  1  0
 37 38  2  0
 37 39  1  0
 39 40  1  0
 39 41  1  0
 41 42  1  6
 42 43  1  0
 43 44  1  0
 43 45  1  0
 41 46  1  0
 46 47  2  0
 46 48  1  0
 48 49  1  0
 49 50  1  6
 49 51  1  0
 51 52  2  0
 51 53  1  0
 53 54  1  0
 54 55  1  1
 54 56  1  0
 56 57  2  0
 56 58  1  0
 58 59  1  0
 58 60  1  0
 60 61  1  6
 61 62  1  0
 62 63  1  0
 62 64  1  0
 60 65  1  0
 65 66  2  0
 65 67  1  0
 67 68  1  0
 67 69  1  0
 69 70  1  6
 70 71  1  0
 71 72  1  0
 71 73  1  0
 69 74  1  0
 74 75  2  0
 74 76  1  0
 76 77  1  0
 76 78  1  0
 78 79  1  6
 79 80  1  0
 79 81  1  0
 78 82  1  0
 82 83  2  0
 82 84  1  0
 84 85  1  0
 84  9  1  0
M  END
>  <assay_description>  (51) 
Inhibition of recombinant human BSEP expressed in baculovirus infected sf9 cell membrane vesicles assessed as reduction in ATP or AMP-dependent [3H]-taurocholic acid uptake in to vesicles preincubated for 5 mins followed by ATP/AMP addition measured after 5 mins by scintillation counting method

>  <molecule_pref_name>  (51) 
CYCLOSPORINE

>  <canonical_smiles>  (51) 
C/C=C/C[C@@H](C)[C@@H](O)[C@H]1C(=O)N[C@@H](CC)C(=O)N(C)CC(=O)N(C)[C@@H](CC(C)C)C(=O)N[C@@H](C(C)C)C(=O)N(C)[C@@H](CC(C)C)C(=O)N[C@@H](C)C(=O)N[C@H](C)C(=O)N(C)[C@@H](CC(C)C)C(=O)N(C)[C@@H](CC(C)C)C(=O)N(C)[C@@H](C(C)C)C(=O)N1C

>  <pchembl_value>  (51) 
6.40

>  <standard_type>  (51) 
IC50

>  <standard_relation>  (51) 
=

>  <standard_value>  (51) 
400.0

>  <standard_units>  (51) 
nM

>  <target_pref_name>  (51) 
Bile salt export pump

>  <target_organism>  (51) 
Homo sapiens

$$$$
CHEMBL472
     RDKit          2D

 33 35  0  0  0  0  0  0  0  0999 V2000
    3.7500   -1.2990    0.0000 C   0  0  0  0  0  0  0  0  0  0  0  0
    3.0000    0.0000    0.0000 O   0  0  0  0  0  0  0  0  0  0  0  0
    1.5000    0.0000    0.0000 C   0  0  0  0  0  0  0  0  0  0  0  0
    0.7500   -1.2990    0.0000 C   0  0  0  0  0  0  0  0  0  0  0  0
   -0.7500   -1.2990    0.0000 C   0  0  0  0  0  0  0  0  0  0  0  0
   -1.5000    0.0000    0.0000 C   0  0  0  0  0  0  0  0  0  0  0  0
   -3.0000    0.0000    0.0000 Cl  0  0  0  0  0  0  0  0  0  0  0  0
   -0.7500    1.2990    0.0000 C   0  0  0  0  0  0  0  0  0  0  0  0
    0.7500    1.2990    0.0000 C   0  0  0  0  0  0  0  0  0  0  0  0
    1.5000    2.5981    0.0000 C   0  0  0  0  0  0  0  0  0  0  0  0
    0.7500    3.8971    0.0000 O   0  0  0  0  0  0  0  0  0  0  0  0
    3.0000    2.5981    0.0000 N   0  0  0  0  0  0  0  0  0  0  0  0
    3.7500    3.8971    0.0000 C   0  0  0  0  0  0  0  0  0  0  0  0
    5.2500    3.8971    0.0000 C   0  0  0  0  0  0  0  0  0  0  0  0
    6.0000    5.1962    0.0000 C   0  0  0  0  0  0  0  0  0  0  0  0
    7.5000    5.1962    0.0000 C   0  0  0  0  0  0  0  0  0  0  0  0
    8.2500    6.4952    0.0000 C   0  0  0  0  0  0  0  0  0  0  0  0
    7.5000    7.7942    0.0000 C   0  0  0  0  0  0  0  0  0  0  0  0
    8.2500    9.0933    0.0000 S   0  0  0  0  0  0  0  0  0  0  0  0
    9.5490    8.3433    0.0000 O   0  0  0  0  0  0  0  0  0  0  0  0
    6.9510    9.8433    0.0000 O   0  0  0  0  0  0  0  0  0  0  0  0
    9.0000   10.3923    0.0000 N   0  0  0  0  0  0  0  0  0  0  0  0
    8.2500   11.6913    0.0000 C   0  0  0  0  0  0  0  0  0  0  0  0
    6.7500   11.6913    0.0000 O   0  0  0  0  0  0  0  0  0  0  0  0
    9.0000   12.9904    0.0000 N   0  0  0  0  0  0  0  0  0  0  0  0
    8.2500   14.2894    0.0000 C   0  0  0  0  0  0  0  0  0  0  0  0
    9.0000   15.5885    0.0000 C   0  0  0  0  0  0  0  0  0  0  0  0
    8.2500   16.8875    0.0000 C   0  0  0  0  0  0  0  0  0  0  0  0
    6.7500   16.8875    0.0000 C   0  0  0  0  0  0  0  0  0  0  0  0
    6.0000   15.5885    0.0000 C   0  0  0  0  0  0  0  0  0  0  0  0
    6.7500   14.2894    0.0000 C   0  0  0  0  0  0  0  0  0  0  0  0
    6.0000    7.7942    0.0000 C   0  0  0  0  0  0  0  0  0  0  0  0
    5.2500    6.4952    0.0000 C   0  0  0  0  0  0  0  0  0  0  0  0
  1  2  1  0
  2  3  1  0
  3  4  2  0
  4  5  1  0
  5  6  2  0
  6  7  1  0
  6  8  1  0
  8  9  2  0
  9 10  1  0
 10 11  2  0
 10 12  1  0
 12 13  1  0
 13 14  1  0
 14 15  1  0
 15 16  2  0
 16 17  1  0
 17 18  2  0
 18 19  1  0
 19 20  2  0
 19 21  2  0
 19 22  1  0
 22 23  1  0
 23 24  2  0
 23 25  1  0
 25 26  1  0
 26 27  1  0
 27 28  1  0
 28 29  1  0
 29 30  1  0
 30 31  1  0
 18 32  1  0
 32 33  2  0
  9  3  1  0
 33 15  1  0
 31 26  1  0
M  END
>  <assay_description>  (52) 
Inhibition of recombinant human BSEP expressed in baculovirus infected sf9 cell membrane vesicles assessed as reduction in ATP or AMP-dependent [3H]-taurocholic acid uptake in to vesicles preincubated for 5 mins followed by ATP/AMP addition measured after 5 mins by scintillation counting method

>  <molecule_pref_name>  (52) 
GLYBURIDE

>  <canonical_smiles>  (52) 
COc1ccc(Cl)cc1C(=O)NCCc1ccc(S(=O)(=O)NC(=O)NC2CCCCC2)cc1

>  <pchembl_value>  (52) 
5.82

>  <standard_type>  (52) 
IC50

>  <standard_relation>  (52) 
=

>  <standard_value>  (52) 
1500.0

>  <standard_units>  (52) 
nM

>  <target_pref_name>  (52) 
Bile salt export pump

>  <target_organism>  (52) 
Homo sapiens

$$$$
CHEMBL437765
     RDKit          2D

 50 53  0  0  0  0  0  0  0  0999 V2000
    0.4940    8.3646    0.0000 C   0  0  0  0  0  0  0  0  0  0  0  0
   -1.0057    8.3332    0.0000 O   0  0  0  0  0  0  0  0  0  0  0  0
   -1.7283    7.0188    0.0000 C   0  0  0  0  0  0  0  0  0  0  0  0
   -0.5195    6.1307    0.0000 C   0  0  0  0  0  0  0  0  0  0  0  0
    0.4184    4.9601    0.0000 C   0  0  0  0  0  0  0  0  0  0  0  0
    1.0212    3.5866    0.0000 O   0  0  0  0  0  0  0  0  0  0  0  0
    0.3943    1.2135    0.0000 C   0  0  0  0  0  0  0  0  0  0  0  0
    0.8578    2.6401    0.0000 C   0  0  0  0  0  0  0  0  0  0  0  0
    1.2760    0.0000    0.0000 O   0  0  0  0  0  0  0  0  0  0  0  0
    0.3943   -1.2135    0.0000 C   0  0  0  0  0  0  0  0  0  0  0  0
    0.7062   -2.6807    0.0000 C   0  0  0  0  0  0  0  0  0  0  0  0
    2.1328   -3.1443    0.0000 C   0  0  0  0  0  0  0  0  0  0  0  0
   -0.4086   -3.6844    0.0000 C   0  0  0  0  0  0  0  0  0  0  0  0
   -0.0967   -5.1517    0.0000 O   0  0  0  0  0  0  0  0  0  0  0  0
   -1.8351   -3.2209    0.0000 C   0  0  0  0  0  0  0  0  0  0  0  0
   -2.9499   -4.2246    0.0000 C   0  0  0  0  0  0  0  0  0  0  0  0
   -2.6380   -5.6918    0.0000 O   0  0  0  0  0  0  0  0  0  0  0  0
   -4.3764   -3.7611    0.0000 C   0  0  0  0  0  0  0  0  0  0  0  0
   -4.6883   -2.2939    0.0000 C   0  0  0  0  0  0  0  0  0  0  0  0
   -3.5736   -1.2902    0.0000 C   0  0  0  0  0  0  0  0  0  0  0  0
   -3.8855    0.1771    0.0000 O   0  0  0  0  0  0  0  0  0  0  0  0
   -2.1470   -1.7537    0.0000 C   0  0  0  0  0  0  0  0  0  0  0  0
   -1.0323   -0.7500    0.0000 C   0  0  0  0  0  0  0  0  0  0  0  0
   -1.0323    0.7500    0.0000 C   0  0  0  0  0  0  0  0  0  0  0  0
   -2.2458    1.6317    0.0000 O   0  0  0  0  0  0  0  0  0  0  0  0
   -5.8674   -3.5964    0.0000 N   0  0  0  0  0  0  0  0  0  0  0  0
   -7.2649   -3.0515    0.0000 C   0  0  0  0  0  0  0  0  0  0  0  0
   -7.9876   -4.3660    0.0000 O   0  0  0  0  0  0  0  0  0  0  0  0
   -8.4738   -2.1635    0.0000 C   0  0  0  0  0  0  0  0  0  0  0  0
   -9.5120   -3.2461    0.0000 C   0  0  0  0  0  0  0  0  0  0  0  0
   -9.4116   -0.9928    0.0000 C   0  0  0  0  0  0  0  0  0  0  0  0
  -10.0145    0.3807    0.0000 C   0  0  0  0  0  0  0  0  0  0  0  0
  -10.2413    1.8634    0.0000 C   0  0  0  0  0  0  0  0  0  0  0  0
  -10.0767    3.3544    0.0000 C   0  0  0  0  0  0  0  0  0  0  0  0
  -11.5334    3.7122    0.0000 C   0  0  0  0  0  0  0  0  0  0  0  0
   -9.5318    4.7519    0.0000 C   0  0  0  0  0  0  0  0  0  0  0  0
  -10.8462    5.4746    0.0000 O   0  0  0  0  0  0  0  0  0  0  0  0
   -8.6437    5.9608    0.0000 C   0  0  0  0  0  0  0  0  0  0  0  0
   -9.7263    6.9990    0.0000 C   0  0  0  0  0  0  0  0  0  0  0  0
   -7.4731    6.8986    0.0000 C   0  0  0  0  0  0  0  0  0  0  0  0
   -8.2501    8.1817    0.0000 O   0  0  0  0  0  0  0  0  0  0  0  0
   -6.0995    7.5015    0.0000 C   0  0  0  0  0  0  0  0  0  0  0  0
   -6.5180    8.9419    0.0000 C   0  0  0  0  0  0  0  0  0  0  0  0
   -4.6168    7.7283    0.0000 C   0  0  0  0  0  0  0  0  0  0  0  0
   -4.6482    9.2280    0.0000 O   0  0  0  0  0  0  0  0  0  0  0  0
   -5.9626    9.9507    0.0000 C   0  0  0  0  0  0  0  0  0  0  0  0
   -7.2457    9.1737    0.0000 C   0  0  0  0  0  0  0  0  0  0  0  0
   -5.9940   11.4504    0.0000 O   0  0  0  0  0  0  0  0  0  0  0  0
   -3.1259    7.5637    0.0000 C   0  0  0  0  0  0  0  0  0  0  0  0
   -2.7680    9.0204    0.0000 C   0  0  0  0  0  0  0  0  0  0  0  0
  1  2  1  0
  3  2  1  1
  3  4  1  0
  4  5  2  0
  5  6  1  0
  6  7  1  0
  7  8  1  6
  7  9  1  0
  9 10  1  0
 10 11  2  0
 11 12  1  0
 11 13  1  0
 13 14  1  0
 13 15  2  0
 15 16  1  0
 16 17  1  0
 16 18  2  0
 18 19  1  0
 19 20  2  0
 20 21  1  0
 20 22  1  0
 22 23  2  0
 23 24  1  0
 24 25  2  0
 18 26  1  0
 26 27  1  0
 27 28  2  0
 27 29  1  0
 29 30  1  0
 29 31  2  0
 31 32  1  0
 32 33  2  0
 33 34  1  0
 34 35  1  6
 34 36  1  0
 36 37  1  6
 36 38  1  0
 38 39  1  1
 38 40  1  0
 40 41  1  1
 40 42  1  0
 42 43  1  1
 42 44  1  0
 44 45  1  6
 45 46  1  0
 46 47  1  0
 46 48  2  0
 44 49  1  0
 49 50  1  6
 49  3  1  0
 24  7  1  0
 23 10  1  0
 22 15  1  0
M  END
>  <assay_description>  (53) 
Inhibition of recombinant human BSEP expressed in baculovirus infected sf9 cell membrane vesicles assessed as reduction in ATP or AMP-dependent [3H]-taurocholic acid uptake in to vesicles preincubated for 5 mins followed by ATP/AMP addition measured after 5 mins by scintillation counting method

>  <molecule_pref_name>  (53) 
RIFAMYCIN

>  <canonical_smiles>  (53) 
CO[C@H]1/C=C/O[C@@]2(C)Oc3c(C)c(O)c4c(O)c(cc(O)c4c3C2=O)NC(=O)/C(C)=C\C=C\[C@H](C)[C@H](O)[C@@H](C)[C@@H](O)[C@@H](C)[C@H](OC(C)=O)[C@@H]1C

>  <pchembl_value>  (53) 
5.02

>  <standard_type>  (53) 
IC50

>  <standard_relation>  (53) 
=

>  <standard_value>  (53) 
9500.0

>  <standard_units>  (53) 
nM

>  <target_pref_name>  (53) 
Bile salt export pump

>  <target_organism>  (53) 
Homo sapiens

$$$$
CHEMBL623
     RDKit          2D

 33 36  0  0  0  0  0  0  0  0999 V2000
   -0.8113  -11.2427    0.0000 C   0  0  0  0  0  0  0  0  0  0  0  0
    0.4022  -10.3610    0.0000 C   0  0  0  0  0  0  0  0  0  0  0  0
    0.2454   -8.8692    0.0000 C   0  0  0  0  0  0  0  0  0  0  0  0
    1.3601   -7.8655    0.0000 N   0  0  0  0  0  0  0  0  0  0  0  0
    0.7500   -6.4952    0.0000 N   0  0  0  0  0  0  0  0  0  0  0  0
    1.5000   -5.1962    0.0000 C   0  0  0  0  0  0  0  0  0  0  0  0
    0.7500   -3.8971    0.0000 C   0  0  0  0  0  0  0  0  0  0  0  0
    1.5000   -2.5981    0.0000 C   0  0  0  0  0  0  0  0  0  0  0  0
    0.7500   -1.2990    0.0000 N   0  0  0  0  0  0  0  0  0  0  0  0
    1.5000    0.0000    0.0000 C   0  0  0  0  0  0  0  0  0  0  0  0
    0.7500    1.2990    0.0000 C   0  0  0  0  0  0  0  0  0  0  0  0
   -0.7500    1.2990    0.0000 N   0  0  0  0  0  0  0  0  0  0  0  0
   -1.5000    2.5981    0.0000 C   0  0  0  0  0  0  0  0  0  0  0  0
   -0.7500    3.8971    0.0000 C   0  0  0  0  0  0  0  0  0  0  0  0
   -1.5000    5.1962    0.0000 C   0  0  0  0  0  0  0  0  0  0  0  0
   -3.0000    5.1962    0.0000 C   0  0  0  0  0  0  0  0  0  0  0  0
   -3.7500    3.8971    0.0000 C   0  0  0  0  0  0  0  0  0  0  0  0
   -5.2500    3.8971    0.0000 Cl  0  0  0  0  0  0  0  0  0  0  0  0
   -3.0000    2.5981    0.0000 C   0  0  0  0  0  0  0  0  0  0  0  0
   -1.5000    0.0000    0.0000 C   0  0  0  0  0  0  0  0  0  0  0  0
   -0.7500   -1.2990    0.0000 C   0  0  0  0  0  0  0  0  0  0  0  0
   -0.7418   -6.6520    0.0000 C   0  0  0  0  0  0  0  0  0  0  0  0
   -1.7455   -5.5373    0.0000 O   0  0  0  0  0  0  0  0  0  0  0  0
   -1.0537   -8.1192    0.0000 N   0  0  0  0  0  0  0  0  0  0  0  0
   -2.4240   -8.7293    0.0000 C   0  0  0  0  0  0  0  0  0  0  0  0
   -3.6375   -7.8476    0.0000 C   0  0  0  0  0  0  0  0  0  0  0  0
   -5.0078   -8.4577    0.0000 O   0  0  0  0  0  0  0  0  0  0  0  0
   -6.2213   -7.5761    0.0000 C   0  0  0  0  0  0  0  0  0  0  0  0
   -6.0645   -6.0843    0.0000 C   0  0  0  0  0  0  0  0  0  0  0  0
   -7.2781   -5.2026    0.0000 C   0  0  0  0  0  0  0  0  0  0  0  0
   -8.6484   -5.8127    0.0000 C   0  0  0  0  0  0  0  0  0  0  0  0
   -8.8052   -7.3045    0.0000 C   0  0  0  0  0  0  0  0  0  0  0  0
   -7.5917   -8.1862    0.0000 C   0  0  0  0  0  0  0  0  0  0  0  0
  1  2  1  0
  2  3  1  0
  3  4  2  0
  4  5  1  0
  5  6  1  0
  6  7  1  0
  7  8  1  0
  8  9  1  0
  9 10  1  0
 10 11  1  0
 11 12  1  0
 12 13  1  0
 13 14  2  0
 14 15  1  0
 15 16  2  0
 16 17  1  0
 17 18  1  0
 17 19  2  0
 12 20  1  0
 20 21  1  0
  5 22  1  0
 22 23  2  0
 22 24  1  0
 24 25  1  0
 25 26  1  0
 26 27  1  0
 27 28  1  0
 28 29  2  0
 29 30  1  0
 30 31  2  0
 31 32  1  0
 32 33  2  0
 24  3  1  0
 33 28  1  0
 21  9  1  0
 19 13  1  0
M  END
>  <assay_description>  (54) 
Inhibition of recombinant human BSEP expressed in baculovirus infected sf9 cell membrane vesicles assessed as reduction in ATP or AMP-dependent [3H]-taurocholic acid uptake in to vesicles preincubated for 5 mins followed by ATP/AMP addition measured after 5 mins by scintillation counting method

>  <molecule_pref_name>  (54) 
NEFAZODONE

>  <canonical_smiles>  (54) 
CCc1nn(CCCN2CCN(c3cccc(Cl)c3)CC2)c(=O)n1CCOc1ccccc1

>  <pchembl_value>  (54) 
5.16

>  <standard_type>  (54) 
IC50

>  <standard_relation>  (54) 
=

>  <standard_value>  (54) 
7000.0

>  <standard_units>  (54) 
nM

>  <target_pref_name>  (54) 
Bile salt export pump

>  <target_organism>  (54) 
Homo sapiens

$$$$
CHEMBL621
     RDKit          2D

 26 29  0  0  0  0  0  0  0  0999 V2000
   -2.6401   -3.1891    0.0000 O   0  0  0  0  0  0  0  0  0  0  0  0
   -1.2135   -2.7256    0.0000 C   0  0  0  0  0  0  0  0  0  0  0  0
   -0.0000   -3.6073    0.0000 N   0  0  0  0  0  0  0  0  0  0  0  0
   -0.0000   -5.1073    0.0000 C   0  0  0  0  0  0  0  0  0  0  0  0
    1.2990   -5.8573    0.0000 C   0  0  0  0  0  0  0  0  0  0  0  0
    1.2990   -7.3573    0.0000 C   0  0  0  0  0  0  0  0  0  0  0  0
    2.5981   -8.1073    0.0000 N   0  0  0  0  0  0  0  0  0  0  0  0
    2.5981   -9.6073    0.0000 C   0  0  0  0  0  0  0  0  0  0  0  0
    3.8971  -10.3573    0.0000 C   0  0  0  0  0  0  0  0  0  0  0  0
    5.1962   -9.6073    0.0000 N   0  0  0  0  0  0  0  0  0  0  0  0
    6.4952  -10.3573    0.0000 C   0  0  0  0  0  0  0  0  0  0  0  0
    6.4952  -11.8573    0.0000 C   0  0  0  0  0  0  0  0  0  0  0  0
    7.7942  -12.6073    0.0000 C   0  0  0  0  0  0  0  0  0  0  0  0
    9.0933  -11.8573    0.0000 C   0  0  0  0  0  0  0  0  0  0  0  0
    9.0933  -10.3573    0.0000 C   0  0  0  0  0  0  0  0  0  0  0  0
   10.3923   -9.6073    0.0000 Cl  0  0  0  0  0  0  0  0  0  0  0  0
    7.7942   -9.6073    0.0000 C   0  0  0  0  0  0  0  0  0  0  0  0
    5.1962   -8.1073    0.0000 C   0  0  0  0  0  0  0  0  0  0  0  0
    3.8971   -7.3573    0.0000 C   0  0  0  0  0  0  0  0  0  0  0  0
    1.2135   -2.7256    0.0000 N   0  0  0  0  0  0  0  0  0  0  0  0
    0.7500   -1.2990    0.0000 C   0  0  0  0  0  0  0  0  0  0  0  0
    1.5000    0.0000    0.0000 C   0  0  0  0  0  0  0  0  0  0  0  0
    0.7500    1.2990    0.0000 C   0  0  0  0  0  0  0  0  0  0  0  0
   -0.7500    1.2990    0.0000 C   0  0  0  0  0  0  0  0  0  0  0  0
   -1.5000    0.0000    0.0000 C   0  0  0  0  0  0  0  0  0  0  0  0
   -0.7500   -1.2990    0.0000 N   0  0  0  0  0  0  0  0  0  0  0  0
  1  2  2  0
  2  3  1  0
  3  4  1  0
  4  5  1  0
  5  6  1  0
  6  7  1  0
  7  8  1  0
  8  9  1  0
  9 10  1  0
 10 11  1  0
 11 12  2  0
 12 13  1  0
 13 14  2  0
 14 15  1  0
 15 16  1  0
 15 17  2  0
 10 18  1  0
 18 19  1  0
  3 20  1  0
 20 21  2  0
 21 22  1  0
 22 23  2  0
 23 24  1  0
 24 25  2  0
 25 26  1  0
 26  2  1  0
 19  7  1  0
 26 21  1  0
 17 11  1  0
M  END
>  <assay_description>  (55) 
Inhibition of recombinant human BSEP expressed in baculovirus infected sf9 cell membrane vesicles assessed as reduction in ATP or AMP-dependent [3H]-taurocholic acid uptake in to vesicles preincubated for 5 mins followed by ATP/AMP addition measured after 5 mins by scintillation counting method

>  <molecule_pref_name>  (55) 
TRAZODONE

>  <canonical_smiles>  (55) 
O=c1n(CCCN2CCN(c3cccc(Cl)c3)CC2)nc2ccccn12

>  <pchembl_value>  (55) 
4.05

>  <standard_type>  (55) 
IC50

>  <standard_relation>  (55) 
=

>  <standard_value>  (55) 
90000.0

>  <standard_units>  (55) 
nM

>  <target_pref_name>  (55) 
Bile salt export pump

>  <target_organism>  (55) 
Homo sapiens

$$$$
CHEMBL1586
     RDKit          2D

 28 31  0  0  0  0  0  0  0  0999 V2000
   -2.2500   -9.0044    0.0000 C   0  0  0  0  0  0  0  0  0  0  0  0
   -2.2500   -7.5044    0.0000 C   0  0  0  0  0  0  0  0  0  0  0  0
   -1.0365   -6.6227    0.0000 C   0  0  0  0  0  0  0  0  0  0  0  0
   -1.5000   -5.1962    0.0000 C   0  0  0  0  0  0  0  0  0  0  0  0
   -0.7500   -3.8971    0.0000 C   0  0  0  0  0  0  0  0  0  0  0  0
    0.7500   -3.8971    0.0000 C   0  0  0  0  0  0  0  0  0  0  0  0
    1.5000   -2.5981    0.0000 C   0  0  0  0  0  0  0  0  0  0  0  0
    0.7500   -1.2990    0.0000 C   0  0  0  0  0  0  0  0  0  0  0  0
    1.5000    0.0000    0.0000 C   0  0  0  0  0  0  0  0  0  0  0  0
    0.7500    1.2990    0.0000 C   0  0  0  0  0  0  0  0  0  0  0  0
    1.5000    2.5981    0.0000 O   0  0  0  0  0  0  0  0  0  0  0  0
   -0.7500    1.2990    0.0000 C   0  0  0  0  0  0  0  0  0  0  0  0
   -1.5000    0.0000    0.0000 C   0  0  0  0  0  0  0  0  0  0  0  0
   -0.7500   -1.2990    0.0000 C   0  0  0  0  0  0  0  0  0  0  0  0
   -1.6291   -1.1911    0.0000 C   0  0  0  0  0  0  0  0  0  0  0  0
   -1.5000   -2.5981    0.0000 C   0  0  0  0  0  0  0  0  0  0  0  0
   -2.0331   -1.8907    0.0000 Cl  0  0  0  0  0  0  0  0  0  0  0  0
   -3.0000   -2.5981    0.0000 C   0  0  0  0  0  0  0  0  0  0  0  0
   -3.7500   -1.2990    0.0000 O   0  0  0  0  0  0  0  0  0  0  0  0
   -3.7500   -3.8971    0.0000 C   0  0  0  0  0  0  0  0  0  0  0  0
   -3.0000   -5.1962    0.0000 C   0  0  0  0  0  0  0  0  0  0  0  0
   -4.4998   -5.1699    0.0000 C   0  0  0  0  0  0  0  0  0  0  0  0
   -3.4635   -6.6227    0.0000 C   0  0  0  0  0  0  0  0  0  0  0  0
   -4.8980   -6.1842    0.0000 O   0  0  0  0  0  0  0  0  0  0  0  0
   -4.2135   -7.9218    0.0000 C   0  0  0  0  0  0  0  0  0  0  0  0
   -3.4635   -9.2208    0.0000 O   0  0  0  0  0  0  0  0  0  0  0  0
   -5.7135   -7.9218    0.0000 C   0  0  0  0  0  0  0  0  0  0  0  0
   -6.4635   -9.2208    0.0000 O   0  0  0  0  0  0  0  0  0  0  0  0
  2  1  1  6
  2  3  1  0
  4  3  1  6
  4  5  1  0
  5  6  1  1
  6  7  1  0
  7  8  1  0
  8  9  2  0
  9 10  1  0
 10 11  2  0
 10 12  1  0
 12 13  2  0
 13 14  1  0
 14 15  1  6
 14 16  1  0
 16 17  1  1
 16 18  1  0
 18 19  1  6
 18 20  1  0
 20 21  1  0
 21 22  1  6
 21 23  1  0
 23 24  1  1
 23 25  1  0
 25 26  2  0
 25 27  1  0
 27 28  1  0
 23  2  1  0
 21  4  1  0
 16  5  1  0
 14  8  1  0
M  END
>  <assay_description>  (56) 
Inhibition of recombinant human BSEP expressed in baculovirus infected sf9 cell membrane vesicles assessed as reduction in ATP or AMP-dependent [3H]-taurocholic acid uptake in to vesicles preincubated for 5 mins followed by ATP/AMP addition measured after 5 mins by scintillation counting method

>  <molecule_pref_name>  (56) 
BECLOMETHASONE

>  <canonical_smiles>  (56) 
C[C@H]1C[C@H]2[C@@H]3CCC4=CC(=O)C=C[C@]4(C)[C@@]3(Cl)[C@@H](O)C[C@]2(C)[C@@]1(O)C(=O)CO

>  <pchembl_value>  (56) 
4.99

>  <standard_type>  (56) 
IC50

>  <standard_relation>  (56) 
=

>  <standard_value>  (56) 
10300.0

>  <standard_units>  (56) 
nM

>  <target_pref_name>  (56) 
Bile salt export pump

>  <target_organism>  (56) 
Homo sapiens

$$$$
CHEMBL808
     RDKit          2D

 24 26  0  0  0  0  0  0  0  0999 V2000
    3.0000    0.0000    0.0000 Cl  0  0  0  0  0  0  0  0  0  0  0  0
    1.5000    0.0000    0.0000 C   0  0  0  0  0  0  0  0  0  0  0  0
    0.7500   -1.2990    0.0000 C   0  0  0  0  0  0  0  0  0  0  0  0
   -0.7500   -1.2990    0.0000 C   0  0  0  0  0  0  0  0  0  0  0  0
   -1.5000    0.0000    0.0000 C   0  0  0  0  0  0  0  0  0  0  0  0
   -3.0000    0.0000    0.0000 C   0  0  0  0  0  0  0  0  0  0  0  0
   -3.7500    1.2990    0.0000 O   0  0  0  0  0  0  0  0  0  0  0  0
   -5.2500    1.2990    0.0000 C   0  0  0  0  0  0  0  0  0  0  0  0
   -6.0000    0.0000    0.0000 C   0  0  0  0  0  0  0  0  0  0  0  0
   -7.5000    0.0000    0.0000 N   0  0  0  0  0  0  0  0  0  0  0  0
   -8.3817   -1.2135    0.0000 C   0  0  0  0  0  0  0  0  0  0  0  0
   -9.8083   -0.7500    0.0000 C   0  0  0  0  0  0  0  0  0  0  0  0
   -9.8083    0.7500    0.0000 N   0  0  0  0  0  0  0  0  0  0  0  0
   -8.3817    1.2135    0.0000 C   0  0  0  0  0  0  0  0  0  0  0  0
   -6.0000    2.5981    0.0000 C   0  0  0  0  0  0  0  0  0  0  0  0
   -7.5000    2.5981    0.0000 C   0  0  0  0  0  0  0  0  0  0  0  0
   -8.2500    3.8971    0.0000 C   0  0  0  0  0  0  0  0  0  0  0  0
   -7.5000    5.1962    0.0000 C   0  0  0  0  0  0  0  0  0  0  0  0
   -8.2500    6.4952    0.0000 Cl  0  0  0  0  0  0  0  0  0  0  0  0
   -6.0000    5.1962    0.0000 C   0  0  0  0  0  0  0  0  0  0  0  0
   -5.2500    3.8971    0.0000 C   0  0  0  0  0  0  0  0  0  0  0  0
   -3.7500    3.8971    0.0000 Cl  0  0  0  0  0  0  0  0  0  0  0  0
   -0.7500    1.2990    0.0000 C   0  0  0  0  0  0  0  0  0  0  0  0
    0.7500    1.2990    0.0000 C   0  0  0  0  0  0  0  0  0  0  0  0
  1  2  1  0
  2  3  2  0
  3  4  1  0
  4  5  2  0
  5  6  1  0
  6  7  1  0
  7  8  1  0
  8  9  1  0
  9 10  1  0
 10 11  1  0
 11 12  2  0
 12 13  1  0
 13 14  2  0
  8 15  1  0
 15 16  2  0
 16 17  1  0
 17 18  2  0
 18 19  1  0
 18 20  1  0
 20 21  2  0
 21 22  1  0
  5 23  1  0
 23 24  2  0
 24  2  1  0
 14 10  1  0
 21 15  1  0
M  END
>  <assay_description>  (57) 
Inhibition of recombinant human BSEP expressed in baculovirus infected sf9 cell membrane vesicles assessed as reduction in ATP or AMP-dependent [3H]-taurocholic acid uptake in to vesicles preincubated for 5 mins followed by ATP/AMP addition measured after 5 mins by scintillation counting method

>  <molecule_pref_name>  (57) 
ECONAZOLE

>  <canonical_smiles>  (57) 
Clc1ccc(COC(Cn2ccnc2)c2ccc(Cl)cc2Cl)cc1

>  <pchembl_value>  (57) 
4.87

>  <standard_type>  (57) 
IC50

>  <standard_relation>  (57) 
=

>  <standard_value>  (57) 
13400.0

>  <standard_units>  (57) 
nM

>  <target_pref_name>  (57) 
Bile salt export pump

>  <target_organism>  (57) 
Homo sapiens

$$$$
CHEMBL841
     RDKit          2D

 34 37  0  0  0  0  0  0  0  0999 V2000
    4.4610   -6.6516    0.0000 C   0  0  0  0  0  0  0  0  0  0  0  0
    4.0981   -5.1962    0.0000 N   0  0  0  0  0  0  0  0  0  0  0  0
    5.3971   -4.4462    0.0000 C   0  0  0  0  0  0  0  0  0  0  0  0
    2.7990   -4.4462    0.0000 C   0  0  0  0  0  0  0  0  0  0  0  0
    2.7990   -2.9462    0.0000 O   0  0  0  0  0  0  0  0  0  0  0  0
    1.5000   -5.1962    0.0000 C   0  0  0  0  0  0  0  0  0  0  0  0
    0.7500   -3.8971    0.0000 C   0  0  0  0  0  0  0  0  0  0  0  0
    1.5000   -2.5981    0.0000 C   0  0  0  0  0  0  0  0  0  0  0  0
    0.7500   -1.2990    0.0000 N   0  0  0  0  0  0  0  0  0  0  0  0
    1.5000    0.0000    0.0000 C   0  0  0  0  0  0  0  0  0  0  0  0
    0.7500    1.2990    0.0000 C   0  0  0  0  0  0  0  0  0  0  0  0
   -0.7500    1.2990    0.0000 C   0  0  0  0  0  0  0  0  0  0  0  0
   -0.4895    2.7762    0.0000 O   0  0  0  0  0  0  0  0  0  0  0  0
   -2.1595    1.8121    0.0000 C   0  0  0  0  0  0  0  0  0  0  0  0
   -2.4200    3.2893    0.0000 C   0  0  0  0  0  0  0  0  0  0  0  0
   -3.8296    3.8023    0.0000 C   0  0  0  0  0  0  0  0  0  0  0  0
   -4.9786    2.8381    0.0000 C   0  0  0  0  0  0  0  0  0  0  0  0
   -6.3882    3.3512    0.0000 Cl  0  0  0  0  0  0  0  0  0  0  0  0
   -4.7181    1.3609    0.0000 C   0  0  0  0  0  0  0  0  0  0  0  0
   -3.3086    0.8479    0.0000 C   0  0  0  0  0  0  0  0  0  0  0  0
   -1.5000    0.0000    0.0000 C   0  0  0  0  0  0  0  0  0  0  0  0
   -0.7500   -1.2990    0.0000 C   0  0  0  0  0  0  0  0  0  0  0  0
    2.2500   -6.4952    0.0000 C   0  0  0  0  0  0  0  0  0  0  0  0
    3.7500   -6.4952    0.0000 C   0  0  0  0  0  0  0  0  0  0  0  0
    4.5000   -7.7942    0.0000 C   0  0  0  0  0  0  0  0  0  0  0  0
    3.7500   -9.0933    0.0000 C   0  0  0  0  0  0  0  0  0  0  0  0
    2.2500   -9.0933    0.0000 C   0  0  0  0  0  0  0  0  0  0  0  0
    1.5000   -7.7942    0.0000 C   0  0  0  0  0  0  0  0  0  0  0  0
    0.2010   -5.9462    0.0000 C   0  0  0  0  0  0  0  0  0  0  0  0
   -1.0981   -5.1962    0.0000 C   0  0  0  0  0  0  0  0  0  0  0  0
   -2.3971   -5.9462    0.0000 C   0  0  0  0  0  0  0  0  0  0  0  0
   -2.3971   -7.4462    0.0000 C   0  0  0  0  0  0  0  0  0  0  0  0
   -1.0981   -8.1962    0.0000 C   0  0  0  0  0  0  0  0  0  0  0  0
    0.2010   -7.4462    0.0000 C   0  0  0  0  0  0  0  0  0  0  0  0
  1  2  1  0
  2  3  1  0
  2  4  1  0
  4  5  2  0
  4  6  1  0
  6  7  1  0
  7  8  1  0
  8  9  1  0
  9 10  1  0
 10 11  1  0
 11 12  1  0
 12 13  1  0
 12 14  1  0
 14 15  2  0
 15 16  1  0
 16 17  2  0
 17 18  1  0
 17 19  1  0
 19 20  2  0
 12 21  1  0
 21 22  1  0
  6 23  1  0
 23 24  2  0
 24 25  1  0
 25 26  2  0
 26 27  1  0
 27 28  2  0
  6 29  1  0
 29 30  2  0
 30 31  1  0
 31 32  2  0
 32 33  1  0
 33 34  2  0
 22  9  1  0
 28 23  1  0
 34 29  1  0
 20 14  1  0
M  END
>  <assay_description>  (58) 
Inhibition of recombinant human BSEP expressed in baculovirus infected sf9 cell membrane vesicles assessed as reduction in ATP or AMP-dependent [3H]-taurocholic acid uptake in to vesicles preincubated for 5 mins followed by ATP/AMP addition measured after 5 mins by scintillation counting method

>  <molecule_pref_name>  (58) 
LOPERAMIDE

>  <canonical_smiles>  (58) 
CN(C)C(=O)C(CCN1CCC(O)(c2ccc(Cl)cc2)CC1)(c1ccccc1)c1ccccc1

>  <pchembl_value>  (58) 
4.17

>  <standard_type>  (58) 
IC50

>  <standard_relation>  (58) 
=

>  <standard_value>  (58) 
67000.0

>  <standard_units>  (58) 
nM

>  <target_pref_name>  (58) 
Bile salt export pump

>  <target_organism>  (58) 
Homo sapiens

$$$$
CHEMBL1201404
     RDKit          2D

 28 31  0  0  0  0  0  0  0  0999 V2000
   -2.2500   -9.0044    0.0000 C   0  0  0  0  0  0  0  0  0  0  0  0
   -2.2500   -7.5044    0.0000 C   0  0  0  0  0  0  0  0  0  0  0  0
   -1.0365   -6.6227    0.0000 C   0  0  0  0  0  0  0  0  0  0  0  0
   -1.5000   -5.1962    0.0000 C   0  0  0  0  0  0  0  0  0  0  0  0
   -0.7500   -3.8971    0.0000 C   0  0  0  0  0  0  0  0  0  0  0  0
    0.7500   -3.8971    0.0000 C   0  0  0  0  0  0  0  0  0  0  0  0
    1.5000   -2.5981    0.0000 C   0  0  0  0  0  0  0  0  0  0  0  0
    0.7500   -1.2990    0.0000 C   0  0  0  0  0  0  0  0  0  0  0  0
    1.5000    0.0000    0.0000 C   0  0  0  0  0  0  0  0  0  0  0  0
    0.7500    1.2990    0.0000 C   0  0  0  0  0  0  0  0  0  0  0  0
    1.5000    2.5981    0.0000 O   0  0  0  0  0  0  0  0  0  0  0  0
   -0.7500    1.2990    0.0000 C   0  0  0  0  0  0  0  0  0  0  0  0
   -1.5000    0.0000    0.0000 C   0  0  0  0  0  0  0  0  0  0  0  0
   -0.7500   -1.2990    0.0000 C   0  0  0  0  0  0  0  0  0  0  0  0
   -1.6291   -1.1911    0.0000 C   0  0  0  0  0  0  0  0  0  0  0  0
   -1.5000   -2.5981    0.0000 C   0  0  0  0  0  0  0  0  0  0  0  0
   -2.0331   -1.8907    0.0000 Cl  0  0  0  0  0  0  0  0  0  0  0  0
   -3.0000   -2.5981    0.0000 C   0  0  0  0  0  0  0  0  0  0  0  0
   -3.7500   -1.2990    0.0000 O   0  0  0  0  0  0  0  0  0  0  0  0
   -3.7500   -3.8971    0.0000 C   0  0  0  0  0  0  0  0  0  0  0  0
   -3.0000   -5.1962    0.0000 C   0  0  0  0  0  0  0  0  0  0  0  0
   -4.4998   -5.1699    0.0000 C   0  0  0  0  0  0  0  0  0  0  0  0
   -3.4635   -6.6227    0.0000 C   0  0  0  0  0  0  0  0  0  0  0  0
   -4.8980   -6.1842    0.0000 O   0  0  0  0  0  0  0  0  0  0  0  0
   -4.2135   -7.9218    0.0000 C   0  0  0  0  0  0  0  0  0  0  0  0
   -3.4635   -9.2208    0.0000 O   0  0  0  0  0  0  0  0  0  0  0  0
   -5.7135   -7.9218    0.0000 C   0  0  0  0  0  0  0  0  0  0  0  0
   -6.4635   -9.2208    0.0000 Cl  0  0  0  0  0  0  0  0  0  0  0  0
  2  1  1  1
  2  3  1  0
  4  3  1  6
  4  5  1  0
  5  6  1  1
  6  7  1  0
  7  8  1  0
  8  9  2  0
  9 10  1  0
 10 11  2  0
 10 12  1  0
 12 13  2  0
 13 14  1  0
 14 15  1  6
 14 16  1  0
 16 17  1  1
 16 18  1  0
 18 19  1  6
 18 20  1  0
 20 21  1  0
 21 22  1  6
 21 23  1  0
 23 24  1  1
 23 25  1  0
 25 26  2  0
 25 27  1  0
 27 28  1  0
 23  2  1  0
 21  4  1  0
 16  5  1  0
 14  8  1  0
M  END
>  <assay_description>  (59) 
Inhibition of recombinant human BSEP expressed in baculovirus infected sf9 cell membrane vesicles assessed as reduction in ATP or AMP-dependent [3H]-taurocholic acid uptake in to vesicles preincubated for 5 mins followed by ATP/AMP addition measured after 5 mins by scintillation counting method

>  <molecule_pref_name>  (59) 
MOMETASONE

>  <canonical_smiles>  (59) 
C[C@@H]1C[C@H]2[C@@H]3CCC4=CC(=O)C=C[C@]4(C)[C@@]3(Cl)[C@@H](O)C[C@]2(C)[C@@]1(O)C(=O)CCl

>  <pchembl_value>  (59) 
5.03

>  <standard_type>  (59) 
IC50

>  <standard_relation>  (59) 
=

>  <standard_value>  (59) 
9300.0

>  <standard_units>  (59) 
nM

>  <target_pref_name>  (59) 
Bile salt export pump

>  <target_organism>  (59) 
Homo sapiens

$$$$
CHEMBL1428
     RDKit          2D

 30 31  0  0  0  0  0  0  0  0999 V2000
    8.2500   -3.8971    0.0000 C   0  0  0  0  0  0  0  0  0  0  0  0
    7.5000   -2.5981    0.0000 O   0  0  0  0  0  0  0  0  0  0  0  0
    6.0000   -2.5981    0.0000 C   0  0  0  0  0  0  0  0  0  0  0  0
    5.2500   -1.2990    0.0000 C   0  0  0  0  0  0  0  0  0  0  0  0
    3.7500   -1.2990    0.0000 O   0  0  0  0  0  0  0  0  0  0  0  0
    3.0000    0.0000    0.0000 C   0  0  0  0  0  0  0  0  0  0  0  0
    3.7500    1.2990    0.0000 O   0  0  0  0  0  0  0  0  0  0  0  0
    1.5000    0.0000    0.0000 C   0  0  0  0  0  0  0  0  0  0  0  0
    0.7500   -1.2990    0.0000 C   0  0  0  0  0  0  0  0  0  0  0  0
    1.5000   -2.5981    0.0000 C   0  0  0  0  0  0  0  0  0  0  0  0
   -0.7500   -1.2990    0.0000 N   0  0  0  0  0  0  0  0  0  0  0  0
   -1.5000    0.0000    0.0000 C   0  0  0  0  0  0  0  0  0  0  0  0
   -3.0000    0.0000    0.0000 C   0  0  0  0  0  0  0  0  0  0  0  0
   -0.7500    1.2990    0.0000 C   0  0  0  0  0  0  0  0  0  0  0  0
   -1.5000    2.5981    0.0000 C   0  0  0  0  0  0  0  0  0  0  0  0
   -0.7500    3.8971    0.0000 O   0  0  0  0  0  0  0  0  0  0  0  0
   -3.0000    2.5981    0.0000 O   0  0  0  0  0  0  0  0  0  0  0  0
   -3.7500    3.8971    0.0000 C   0  0  0  0  0  0  0  0  0  0  0  0
   -5.2500    3.8971    0.0000 C   0  0  0  0  0  0  0  0  0  0  0  0
   -3.0000    5.1962    0.0000 C   0  0  0  0  0  0  0  0  0  0  0  0
    0.7500    1.2990    0.0000 C   0  0  0  0  0  0  0  0  0  0  0  0
    1.5000    2.5981    0.0000 C   0  0  0  0  0  0  0  0  0  0  0  0
    3.0000    2.5981    0.0000 C   0  0  0  0  0  0  0  0  0  0  0  0
    3.7500    3.8971    0.0000 C   0  0  0  0  0  0  0  0  0  0  0  0
    3.0000    5.1962    0.0000 C   0  0  0  0  0  0  0  0  0  0  0  0
    1.5000    5.1962    0.0000 C   0  0  0  0  0  0  0  0  0  0  0  0
    0.7500    6.4952    0.0000 N   0  0  0  0  0  4  0  0  0  0  0  0
   -0.7500    6.4952    0.0000 O   0  0  0  0  0  0  0  0  0  0  0  0
    1.5000    7.7942    0.0000 O   0  0  0  0  0  1  0  0  0  0  0  0
    0.7500    3.8971    0.0000 C   0  0  0  0  0  0  0  0  0  0  0  0
  1  2  1  0
  2  3  1  0
  3  4  1  0
  4  5  1  0
  5  6  1  0
  6  7  2  0
  6  8  1  0
  8  9  2  0
  9 10  1  0
  9 11  1  0
 11 12  1  0
 12 13  1  0
 12 14  2  0
 14 15  1  0
 15 16  2  0
 15 17  1  0
 17 18  1  0
 18 19  1  0
 18 20  1  0
 14 21  1  0
 21 22  1  0
 22 23  2  0
 23 24  1  0
 24 25  2  0
 25 26  1  0
 26 27  1  0
 27 28  2  0
 27 29  1  0
 26 30  2  0
 21  8  1  0
 30 22  1  0
M  CHG  2  27   1  29  -1
M  END
>  <assay_description>  (60) 
Inhibition of recombinant human BSEP expressed in baculovirus infected sf9 cell membrane vesicles assessed as reduction in ATP or AMP-dependent [3H]-taurocholic acid uptake in to vesicles preincubated for 5 mins followed by ATP/AMP addition measured after 5 mins by scintillation counting method

>  <molecule_pref_name>  (60) 
NIMODIPINE

>  <canonical_smiles>  (60) 
COCCOC(=O)C1=C(C)NC(C)=C(C(=O)OC(C)C)C1c1cccc([N+](=O)[O-])c1

>  <pchembl_value>  (60) 
5.00

>  <standard_type>  (60) 
IC50

>  <standard_relation>  (60) 
=

>  <standard_value>  (60) 
10100.0

>  <standard_units>  (60) 
nM

>  <target_pref_name>  (60) 
Bile salt export pump

>  <target_organism>  (60) 
Homo sapiens

$$$$
CHEMBL832
     RDKit          2D

 29 32  0  0  0  0  0  0  0  0999 V2000
    2.8273   -8.1774    0.0000 O   0  0  0  0  0  0  0  0  0  0  0  0
    1.3601   -7.8655    0.0000 C   0  0  0  0  0  0  0  0  0  0  0  0
    0.7500   -6.4952    0.0000 C   0  0  0  0  0  0  0  0  0  0  0  0
    1.5000   -5.1962    0.0000 C   0  0  0  0  0  0  0  0  0  0  0  0
    0.7500   -3.8971    0.0000 C   0  0  0  0  0  0  0  0  0  0  0  0
    1.5000   -2.5981    0.0000 S   0  0  0  0  0  3  0  0  0  0  0  0
    3.0000   -2.5981    0.0000 O   0  0  0  0  0  1  0  0  0  0  0  0
    0.7500   -1.2990    0.0000 C   0  0  0  0  0  0  0  0  0  0  0  0
    1.5000    0.0000    0.0000 C   0  0  0  0  0  0  0  0  0  0  0  0
    0.7500    1.2990    0.0000 C   0  0  0  0  0  0  0  0  0  0  0  0
   -0.7500    1.2990    0.0000 C   0  0  0  0  0  0  0  0  0  0  0  0
   -1.5000    0.0000    0.0000 C   0  0  0  0  0  0  0  0  0  0  0  0
   -0.7500   -1.2990    0.0000 C   0  0  0  0  0  0  0  0  0  0  0  0
   -0.7418   -6.6520    0.0000 C   0  0  0  0  0  0  0  0  0  0  0  0
   -1.7455   -5.5373    0.0000 O   0  0  0  0  0  0  0  0  0  0  0  0
   -1.0537   -8.1192    0.0000 N   0  0  0  0  0  0  0  0  0  0  0  0
   -2.4240   -8.7293    0.0000 C   0  0  0  0  0  0  0  0  0  0  0  0
   -3.6375   -7.8476    0.0000 C   0  0  0  0  0  0  0  0  0  0  0  0
   -5.0078   -8.4577    0.0000 C   0  0  0  0  0  0  0  0  0  0  0  0
   -5.1646   -9.9495    0.0000 C   0  0  0  0  0  0  0  0  0  0  0  0
   -3.9511  -10.8312    0.0000 C   0  0  0  0  0  0  0  0  0  0  0  0
   -2.5808  -10.2211    0.0000 C   0  0  0  0  0  0  0  0  0  0  0  0
    0.2454   -8.8692    0.0000 N   0  0  0  0  0  0  0  0  0  0  0  0
    0.4022  -10.3610    0.0000 C   0  0  0  0  0  0  0  0  0  0  0  0
   -0.8113  -11.2427    0.0000 C   0  0  0  0  0  0  0  0  0  0  0  0
   -0.6546  -12.7344    0.0000 C   0  0  0  0  0  0  0  0  0  0  0  0
    0.7158  -13.3446    0.0000 C   0  0  0  0  0  0  0  0  0  0  0  0
    1.9293  -12.4629    0.0000 C   0  0  0  0  0  0  0  0  0  0  0  0
    1.7725  -10.9711    0.0000 C   0  0  0  0  0  0  0  0  0  0  0  0
  1  2  2  0
  2  3  1  0
  3  4  1  0
  4  5  1  0
  5  6  1  0
  6  7  1  0
  6  8  1  0
  8  9  2  0
  9 10  1  0
 10 11  2  0
 11 12  1  0
 12 13  2  0
  3 14  1  0
 14 15  2  0
 14 16  1  0
 16 17  1  0
 17 18  2  0
 18 19  1  0
 19 20  2  0
 20 21  1  0
 21 22  2  0
 16 23  1  0
 23 24  1  0
 24 25  2  0
 25 26  1  0
 26 27  2  0
 27 28  1  0
 28 29  2  0
 23  2  1  0
 29 24  1  0
 13  8  1  0
 22 17  1  0
M  CHG  2   6   1   7  -1
M  END
>  <assay_description>  (61) 
Inhibition of recombinant human BSEP expressed in baculovirus infected sf9 cell membrane vesicles assessed as reduction in ATP or AMP-dependent [3H]-taurocholic acid uptake in to vesicles preincubated for 5 mins followed by ATP/AMP addition measured after 5 mins by scintillation counting method

>  <molecule_pref_name>  (61) 
SULFINPYRAZONE

>  <canonical_smiles>  (61) 
O=C1C(CC[S+]([O-])c2ccccc2)C(=O)N(c2ccccc2)N1c1ccccc1

>  <pchembl_value>  (61) 
4.96

>  <standard_type>  (61) 
IC50

>  <standard_relation>  (61) 
=

>  <standard_value>  (61) 
11000.0

>  <standard_units>  (61) 
nM

>  <target_pref_name>  (61) 
Bile salt export pump

>  <target_organism>  (61) 
Homo sapiens

$$$$
CHEMBL240597
     RDKit          2D

 28 31  0  0  0  0  0  0  0  0999 V2000
    5.2020   -8.5535    0.0000 C   0  0  0  0  0  0  0  0  0  0  0  0
    4.8901   -7.0863    0.0000 C   0  0  0  0  0  0  0  0  0  0  0  0
    6.0048   -6.0826    0.0000 C   0  0  0  0  0  0  0  0  0  0  0  0
    7.4314   -6.5461    0.0000 C   0  0  0  0  0  0  0  0  0  0  0  0
    8.5461   -5.5424    0.0000 C   0  0  0  0  0  0  0  0  0  0  0  0
    8.2343   -4.0752    0.0000 O   0  0  0  0  0  0  0  0  0  0  0  0
    9.9727   -6.0059    0.0000 O   0  0  0  0  0  0  0  0  0  0  0  0
    3.4635   -6.6227    0.0000 C   0  0  0  0  0  0  0  0  0  0  0  0
    2.2500   -7.5044    0.0000 C   0  0  0  0  0  0  0  0  0  0  0  0
    1.0365   -6.6227    0.0000 C   0  0  0  0  0  0  0  0  0  0  0  0
    1.5000   -5.1962    0.0000 C   0  0  0  0  0  0  0  0  0  0  0  0
    0.7500   -3.8971    0.0000 C   0  0  0  0  0  0  0  0  0  0  0  0
    1.5000   -2.5981    0.0000 C   0  0  0  0  0  0  0  0  0  0  0  0
    3.0000   -2.5981    0.0000 C   0  0  0  0  0  0  0  0  0  0  0  0
    3.7500   -3.8971    0.0000 C   0  0  0  0  0  0  0  0  0  0  0  0
    3.0000   -5.1962    0.0000 C   0  0  0  0  0  0  0  0  0  0  0  0
    4.4918   -5.3529    0.0000 C   0  0  0  0  0  0  0  0  0  0  0  0
    0.7500   -1.2990    0.0000 C   0  0  0  0  0  0  0  0  0  0  0  0
    2.2500   -1.2990    0.0000 C   0  0  0  0  0  0  0  0  0  0  0  0
    1.5000    0.0000    0.0000 C   0  0  0  0  0  0  0  0  0  0  0  0
    0.7500    1.2990    0.0000 C   0  0  0  0  0  0  0  0  0  0  0  0
   -0.7500    1.2990    0.0000 C   0  0  0  0  0  0  0  0  0  0  0  0
   -1.5000    2.5981    0.0000 O   0  0  0  0  0  0  0  0  0  0  0  0
   -1.5000    0.0000    0.0000 C   0  0  0  0  0  0  0  0  0  0  0  0
   -0.7500   -1.2990    0.0000 C   0  0  0  0  0  0  0  0  0  0  0  0
   -1.5000   -2.5981    0.0000 C   0  0  0  0  0  0  0  0  0  0  0  0
   -0.7500   -3.8971    0.0000 C   0  0  0  0  0  0  0  0  0  0  0  0
   -1.5000   -5.1962    0.0000 O   0  0  0  0  0  0  0  0  0  0  0  0
  2  1  1  1
  2  3  1  0
  3  4  1  0
  4  5  1  0
  5  6  2  0
  5  7  1  0
  2  8  1  0
  8  9  1  1
  9 10  1  0
 11 10  1  1
 11 12  1  0
 12 13  1  0
 13 14  1  1
 14 15  1  0
 15 16  1  0
 16 17  1  1
 13 18  1  0
 18 19  1  1
 18 20  1  0
 20 21  1  0
 21 22  1  0
 22 23  1  6
 22 24  1  0
 25 24  1  6
 25 26  1  0
 26 27  1  0
 27 28  1  6
 16  8  1  0
 25 18  1  0
 16 11  1  0
 12 27  1  6
M  END
>  <assay_description>  (62) 
Inhibition of recombinant human BSEP expressed in baculovirus infected sf9 cell membrane vesicles assessed as reduction in ATP or AMP-dependent [3H]-taurocholic acid uptake in to vesicles preincubated for 5 mins followed by ATP/AMP addition measured after 5 mins by scintillation counting method

>  <molecule_pref_name>  (62) 
CHENODIOL

>  <canonical_smiles>  (62) 
C[C@H](CCC(=O)O)[C@H]1CC[C@H]2[C@H]3[C@H](CC[C@@]21C)[C@@]1(C)CC[C@@H](O)C[C@H]1C[C@H]3O

>  <pchembl_value>  (62) 
4.97

>  <standard_type>  (62) 
IC50

>  <standard_relation>  (62) 
=

>  <standard_value>  (62) 
10600.0

>  <standard_units>  (62) 
nM

>  <target_pref_name>  (62) 
Bile salt export pump

>  <target_organism>  (62) 
Homo sapiens

$$$$
CHEMBL1200624
     RDKit          2D

 28 31  0  0  0  0  0  0  0  0999 V2000
   -4.9635   -9.2208    0.0000 C   0  0  0  0  0  0  0  0  0  0  0  0
   -4.2135   -7.9218    0.0000 C   0  0  0  0  0  0  0  0  0  0  0  0
   -3.4635   -6.6227    0.0000 C   0  0  0  0  0  0  0  0  0  0  0  0
   -4.8338   -6.0126    0.0000 O   0  0  0  0  0  0  0  0  0  0  0  0
   -6.0474   -6.8943    0.0000 C   0  0  0  0  0  0  0  0  0  0  0  0
   -7.4177   -6.2842    0.0000 C   0  0  0  0  0  0  0  0  0  0  0  0
   -5.8906   -8.3861    0.0000 O   0  0  0  0  0  0  0  0  0  0  0  0
   -2.2500   -7.5044    0.0000 C   0  0  0  0  0  0  0  0  0  0  0  0
   -1.0365   -6.6227    0.0000 C   0  0  0  0  0  0  0  0  0  0  0  0
   -1.5000   -5.1962    0.0000 C   0  0  0  0  0  0  0  0  0  0  0  0
   -0.7500   -3.8971    0.0000 C   0  0  0  0  0  0  0  0  0  0  0  0
    0.7500   -3.8971    0.0000 C   0  0  0  0  0  0  0  0  0  0  0  0
    1.5000   -2.5981    0.0000 C   0  0  0  0  0  0  0  0  0  0  0  0
    0.7500   -1.2990    0.0000 C   0  0  0  0  0  0  0  0  0  0  0  0
    1.5000    0.0000    0.0000 C   0  0  0  0  0  0  0  0  0  0  0  0
    0.7500    1.2990    0.0000 C   0  0  0  0  0  0  0  0  0  0  0  0
    1.5000    2.5981    0.0000 O   0  0  0  0  0  0  0  0  0  0  0  0
    3.0000    2.5981    0.0000 C   0  0  0  0  0  0  0  0  0  0  0  0
    3.7500    3.8971    0.0000 C   0  0  0  0  0  0  0  0  0  0  0  0
    3.7500    1.2990    0.0000 O   0  0  0  0  0  0  0  0  0  0  0  0
   -0.7500    1.2990    0.0000 C   0  0  0  0  0  0  0  0  0  0  0  0
   -1.5000    0.0000    0.0000 C   0  0  0  0  0  0  0  0  0  0  0  0
   -0.7500   -1.2990    0.0000 C   0  0  0  0  0  0  0  0  0  0  0  0
   -1.5000   -2.5981    0.0000 C   0  0  0  0  0  0  0  0  0  0  0  0
   -3.0000   -2.5981    0.0000 C   0  0  0  0  0  0  0  0  0  0  0  0
   -3.7500   -3.8971    0.0000 C   0  0  0  0  0  0  0  0  0  0  0  0
   -3.0000   -5.1962    0.0000 C   0  0  0  0  0  0  0  0  0  0  0  0
   -4.4854   -4.9873    0.0000 C   0  0  0  0  0  0  0  0  0  0  0  0
  1  2  3  0
  3  2  1  1
  3  4  1  0
  4  5  1  0
  5  6  1  0
  5  7  2  0
  3  8  1  0
  8  9  1  0
 10  9  1  6
 10 11  1  0
 11 12  1  1
 12 13  1  0
 13 14  1  0
 14 15  2  0
 15 16  1  0
 16 17  1  6
 17 18  1  0
 18 19  1  0
 18 20  2  0
 16 21  1  0
 21 22  1  0
 23 22  1  1
 23 24  1  0
 24 25  1  6
 25 26  1  0
 26 27  1  0
 27 28  1  6
 27  3  1  0
 27 10  1  0
 24 11  1  0
 23 14  1  0
M  END
>  <assay_description>  (63) 
Inhibition of recombinant human BSEP expressed in baculovirus infected sf9 cell membrane vesicles assessed as reduction in ATP or AMP-dependent [3H]-taurocholic acid uptake in to vesicles preincubated for 5 mins followed by ATP/AMP addition measured after 5 mins by scintillation counting method

>  <molecule_pref_name>  (63) 
ETHYNODIOL DIACETATE

>  <canonical_smiles>  (63) 
C#C[C@]1(OC(C)=O)CC[C@H]2[C@@H]3CCC4=C[C@@H](OC(C)=O)CC[C@@H]4[C@H]3CC[C@@]21C

>  <pchembl_value>  (63) 
4.21

>  <standard_type>  (63) 
IC50

>  <standard_relation>  (63) 
=

>  <standard_value>  (63) 
62000.0

>  <standard_units>  (63) 
nM

>  <target_pref_name>  (63) 
Bile salt export pump

>  <target_organism>  (63) 
Homo sapiens

$$$$
CHEMBL672
     RDKit          2D

 25 26  0  0  0  0  0  0  0  0999 V2000
    3.7500   -6.4952    0.0000 C   0  0  0  0  0  0  0  0  0  0  0  0
    4.5000   -5.1962    0.0000 C   0  0  0  0  0  0  0  0  0  0  0  0
    6.0000   -5.1962    0.0000 C   0  0  0  0  0  0  0  0  0  0  0  0
    3.7500   -3.8971    0.0000 O   0  0  0  0  0  0  0  0  0  0  0  0
    4.5000   -2.5981    0.0000 C   0  0  0  0  0  0  0  0  0  0  0  0
    6.0000   -2.5981    0.0000 O   0  0  0  0  0  0  0  0  0  0  0  0
    3.7500   -1.2990    0.0000 C   0  0  0  0  0  0  0  0  0  0  0  0
    5.0490   -0.5490    0.0000 C   0  0  0  0  0  0  0  0  0  0  0  0
    2.4510   -2.0490    0.0000 C   0  0  0  0  0  0  0  0  0  0  0  0
    3.0000    0.0000    0.0000 O   0  0  0  0  0  0  0  0  0  0  0  0
    1.5000    0.0000    0.0000 C   0  0  0  0  0  0  0  0  0  0  0  0
    0.7500   -1.2990    0.0000 C   0  0  0  0  0  0  0  0  0  0  0  0
   -0.7500   -1.2990    0.0000 C   0  0  0  0  0  0  0  0  0  0  0  0
   -1.5000    0.0000    0.0000 C   0  0  0  0  0  0  0  0  0  0  0  0
   -3.0000    0.0000    0.0000 C   0  0  0  0  0  0  0  0  0  0  0  0
   -3.7500   -1.2990    0.0000 O   0  0  0  0  0  0  0  0  0  0  0  0
   -3.7500    1.2990    0.0000 C   0  0  0  0  0  0  0  0  0  0  0  0
   -3.0000    2.5981    0.0000 C   0  0  0  0  0  0  0  0  0  0  0  0
   -3.7500    3.8971    0.0000 C   0  0  0  0  0  0  0  0  0  0  0  0
   -5.2500    3.8971    0.0000 C   0  0  0  0  0  0  0  0  0  0  0  0
   -6.0000    5.1962    0.0000 Cl  0  0  0  0  0  0  0  0  0  0  0  0
   -6.0000    2.5981    0.0000 C   0  0  0  0  0  0  0  0  0  0  0  0
   -5.2500    1.2990    0.0000 C   0  0  0  0  0  0  0  0  0  0  0  0
   -0.7500    1.2990    0.0000 C   0  0  0  0  0  0  0  0  0  0  0  0
    0.7500    1.2990    0.0000 C   0  0  0  0  0  0  0  0  0  0  0  0
  1  2  1  0
  2  3  1  0
  2  4  1  0
  4  5  1  0
  5  6  2  0
  5  7  1  0
  7  8  1  0
  7  9  1  0
  7 10  1  0
 10 11  1  0
 11 12  2  0
 12 13  1  0
 13 14  2  0
 14 15  1  0
 15 16  2  0
 15 17  1  0
 17 18  2  0
 18 19  1  0
 19 20  2  0
 20 21  1  0
 20 22  1  0
 22 23  2  0
 14 24  1  0
 24 25  2  0
 25 11  1  0
 23 17  1  0
M  END
>  <assay_description>  (64) 
Inhibition of recombinant human BSEP expressed in baculovirus infected sf9 cell membrane vesicles assessed as reduction in ATP or AMP-dependent [3H]-taurocholic acid uptake in to vesicles preincubated for 5 mins followed by ATP/AMP addition measured after 5 mins by scintillation counting method

>  <molecule_pref_name>  (64) 
FENOFIBRATE

>  <canonical_smiles>  (64) 
CC(C)OC(=O)C(C)(C)Oc1ccc(C(=O)c2ccc(Cl)cc2)cc1

>  <pchembl_value>  (64) 
4.39

>  <standard_type>  (64) 
IC50

>  <standard_relation>  (64) 
=

>  <standard_value>  (64) 
41000.0

>  <standard_units>  (64) 
nM

>  <target_pref_name>  (64) 
Bile salt export pump

>  <target_organism>  (64) 
Homo sapiens

$$$$
CHEMBL1481
     RDKit          2D

 34 36  0  0  0  0  0  0  0  0999 V2000
    0.4775  -12.2701    0.0000 C   0  0  0  0  0  0  0  0  0  0  0  0
    1.8478  -11.6600    0.0000 C   0  0  0  0  0  0  0  0  0  0  0  0
    2.0046  -10.1682    0.0000 C   0  0  0  0  0  0  0  0  0  0  0  0
    3.3037   -9.4182    0.0000 C   0  0  0  0  0  0  0  0  0  0  0  0
    4.6740  -10.0283    0.0000 C   0  0  0  0  0  0  0  0  0  0  0  0
    2.9918   -7.9510    0.0000 C   0  0  0  0  0  0  0  0  0  0  0  0
    1.5000   -7.7942    0.0000 N   0  0  0  0  0  0  0  0  0  0  0  0
    0.7500   -6.4952    0.0000 C   0  0  0  0  0  0  0  0  0  0  0  0
   -0.7500   -6.4952    0.0000 O   0  0  0  0  0  0  0  0  0  0  0  0
    1.5000   -5.1962    0.0000 N   0  0  0  0  0  0  0  0  0  0  0  0
    0.7500   -3.8971    0.0000 C   0  0  0  0  0  0  0  0  0  0  0  0
    1.5000   -2.5981    0.0000 C   0  0  0  0  0  0  0  0  0  0  0  0
    0.7500   -1.2990    0.0000 C   0  0  0  0  0  0  0  0  0  0  0  0
    1.5000    0.0000    0.0000 C   0  0  0  0  0  0  0  0  0  0  0  0
    0.7500    1.2990    0.0000 C   0  0  0  0  0  0  0  0  0  0  0  0
   -0.7500    1.2990    0.0000 C   0  0  0  0  0  0  0  0  0  0  0  0
   -1.5000    2.5981    0.0000 S   0  0  0  0  0  0  0  0  0  0  0  0
   -0.2010    3.3481    0.0000 O   0  0  0  0  0  0  0  0  0  0  0  0
   -2.7990    1.8481    0.0000 O   0  0  0  0  0  0  0  0  0  0  0  0
   -2.2500    3.8971    0.0000 N   0  0  0  0  0  0  0  0  0  0  0  0
   -3.7500    3.8971    0.0000 C   0  0  0  0  0  0  0  0  0  0  0  0
   -4.5000    2.5981    0.0000 O   0  0  0  0  0  0  0  0  0  0  0  0
   -4.5000    5.1962    0.0000 N   0  0  0  0  0  0  0  0  0  0  0  0
   -6.0000    5.1962    0.0000 C   0  0  0  0  0  0  0  0  0  0  0  0
   -6.7500    6.4952    0.0000 C   0  0  0  0  0  0  0  0  0  0  0  0
   -8.2500    6.4952    0.0000 C   0  0  0  0  0  0  0  0  0  0  0  0
   -9.0000    5.1962    0.0000 C   0  0  0  0  0  0  0  0  0  0  0  0
  -10.5000    5.1962    0.0000 C   0  0  0  0  0  0  0  0  0  0  0  0
   -8.2500    3.8971    0.0000 C   0  0  0  0  0  0  0  0  0  0  0  0
   -6.7500    3.8971    0.0000 C   0  0  0  0  0  0  0  0  0  0  0  0
   -1.5000    0.0000    0.0000 C   0  0  0  0  0  0  0  0  0  0  0  0
   -0.7500   -1.2990    0.0000 C   0  0  0  0  0  0  0  0  0  0  0  0
    0.8899   -9.1645    0.0000 C   0  0  0  0  0  0  0  0  0  0  0  0
   -0.5773   -9.4764    0.0000 O   0  0  0  0  0  0  0  0  0  0  0  0
  1  2  1  0
  2  3  1  0
  3  4  2  0
  4  5  1  0
  4  6  1  0
  6  7  1  0
  7  8  1  0
  8  9  2  0
  8 10  1  0
 10 11  1  0
 11 12  1  0
 12 13  1  0
 13 14  2  0
 14 15  1  0
 15 16  2  0
 16 17  1  0
 17 18  2  0
 17 19  2  0
 17 20  1  0
 20 21  1  0
 21 22  2  0
 21 23  1  0
 24 23  1  6
 24 25  1  0
 25 26  1  0
 26 27  1  0
 27 28  1  1
 27 29  1  0
 29 30  1  0
 16 31  1  0
 31 32  2  0
  7 33  1  0
 33 34  2  0
 33  3  1  0
 32 13  1  0
 30 24  1  0
M  END
>  <assay_description>  (65) 
Inhibition of recombinant human BSEP expressed in baculovirus infected sf9 cell membrane vesicles assessed as reduction in ATP or AMP-dependent [3H]-taurocholic acid uptake in to vesicles preincubated for 5 mins followed by ATP/AMP addition measured after 5 mins by scintillation counting method

>  <molecule_pref_name>  (65) 
GLIMEPIRIDE

>  <canonical_smiles>  (65) 
CCC1=C(C)CN(C(=O)NCCc2ccc(S(=O)(=O)NC(=O)N[C@H]3CC[C@H](C)CC3)cc2)C1=O

>  <pchembl_value>  (65) 
4.47

>  <standard_type>  (65) 
IC50

>  <standard_relation>  (65) 
=

>  <standard_value>  (65) 
34000.0

>  <standard_units>  (65) 
nM

>  <target_pref_name>  (65) 
Bile salt export pump

>  <target_organism>  (65) 
Homo sapiens

$$$$
CHEMBL193
     RDKit          2D

 25 26  0  0  0  0  0  0  0  0999 V2000
    5.2500   -1.2990    0.0000 C   0  0  0  0  0  0  0  0  0  0  0  0
    3.7500   -1.2990    0.0000 O   0  0  0  0  0  0  0  0  0  0  0  0
    3.0000    0.0000    0.0000 C   0  0  0  0  0  0  0  0  0  0  0  0
    3.7500    1.2990    0.0000 O   0  0  0  0  0  0  0  0  0  0  0  0
    1.5000    0.0000    0.0000 C   0  0  0  0  0  0  0  0  0  0  0  0
    0.7500   -1.2990    0.0000 C   0  0  0  0  0  0  0  0  0  0  0  0
    1.5000   -2.5981    0.0000 C   0  0  0  0  0  0  0  0  0  0  0  0
   -0.7500   -1.2990    0.0000 N   0  0  0  0  0  0  0  0  0  0  0  0
   -1.5000    0.0000    0.0000 C   0  0  0  0  0  0  0  0  0  0  0  0
   -3.0000    0.0000    0.0000 C   0  0  0  0  0  0  0  0  0  0  0  0
   -0.7500    1.2990    0.0000 C   0  0  0  0  0  0  0  0  0  0  0  0
   -1.5000    2.5981    0.0000 C   0  0  0  0  0  0  0  0  0  0  0  0
   -1.2803    3.3644    0.0000 O   0  0  0  0  0  0  0  0  0  0  0  0
   -3.0000    2.5981    0.0000 O   0  0  0  0  0  0  0  0  0  0  0  0
   -3.7500    3.8971    0.0000 C   0  0  0  0  0  0  0  0  0  0  0  0
    0.7500    1.2990    0.0000 C   0  0  0  0  0  0  0  0  0  0  0  0
    1.5000    2.5981    0.0000 C   0  0  0  0  0  0  0  0  0  0  0  0
    3.0000    2.5981    0.0000 C   0  0  0  0  0  0  0  0  0  0  0  0
    3.7500    3.8971    0.0000 C   0  0  0  0  0  0  0  0  0  0  0  0
    3.0000    5.1962    0.0000 C   0  0  0  0  0  0  0  0  0  0  0  0
    1.5000    5.1962    0.0000 C   0  0  0  0  0  0  0  0  0  0  0  0
    0.7500    3.8971    0.0000 C   0  0  0  0  0  0  0  0  0  0  0  0
   -0.7500    3.8971    0.0000 N   0  0  0  0  0  4  0  0  0  0  0  0
   -1.7920    2.8182    0.0000 O   0  0  0  0  0  0  0  0  0  0  0  0
   -1.5000    5.1962    0.0000 O   0  0  0  0  0  1  0  0  0  0  0  0
  1  2  1  0
  2  3  1  0
  3  4  2  0
  3  5  1  0
  5  6  2  0
  6  7  1  0
  6  8  1  0
  8  9  1  0
  9 10  1  0
  9 11  2  0
 11 12  1  0
 12 13  2  0
 12 14  1  0
 14 15  1  0
 11 16  1  0
 16 17  1  0
 17 18  2  0
 18 19  1  0
 19 20  2  0
 20 21  1  0
 21 22  2  0
 22 23  1  0
 23 24  2  0
 23 25  1  0
 16  5  1  0
 22 17  1  0
M  CHG  2  23   1  25  -1
M  END
>  <assay_description>  (66) 
Inhibition of recombinant human BSEP expressed in baculovirus infected sf9 cell membrane vesicles assessed as reduction in ATP or AMP-dependent [3H]-taurocholic acid uptake in to vesicles preincubated for 5 mins followed by ATP/AMP addition measured after 5 mins by scintillation counting method

>  <molecule_pref_name>  (66) 
NIFEDIPINE

>  <canonical_smiles>  (66) 
COC(=O)C1=C(C)NC(C)=C(C(=O)OC)C1c1ccccc1[N+](=O)[O-]

>  <pchembl_value>  (66) 
4.16

>  <standard_type>  (66) 
IC50

>  <standard_relation>  (66) 
=

>  <standard_value>  (66) 
69000.0

>  <standard_units>  (66) 
nM

>  <target_pref_name>  (66) 
Bile salt export pump

>  <target_organism>  (66) 
Homo sapiens

$$$$
CHEMBL114
     RDKit          2D

 49 53  0  0  0  0  0  0  0  0999 V2000
    0.2010   -8.5442    0.0000 C   0  0  0  0  0  0  0  0  0  0  0  0
    1.5000   -7.7942    0.0000 C   0  0  0  0  0  0  0  0  0  0  0  0
    2.7990   -7.0442    0.0000 C   0  0  0  0  0  0  0  0  0  0  0  0
    2.2500   -9.0933    0.0000 C   0  0  0  0  0  0  0  0  0  0  0  0
    0.7500   -6.4952    0.0000 N   0  0  0  0  0  0  0  0  0  0  0  0
    1.5000   -5.1962    0.0000 C   0  0  0  0  0  0  0  0  0  0  0  0
    3.0000   -5.1962    0.0000 O   0  0  0  0  0  0  0  0  0  0  0  0
    0.7500   -3.8971    0.0000 C   0  0  0  0  0  0  0  0  0  0  0  0
    1.5000   -2.5981    0.0000 C   0  0  0  0  0  0  0  0  0  0  0  0
    0.7500   -1.2990    0.0000 C   0  0  0  0  0  0  0  0  0  0  0  0
    1.5000    0.0000    0.0000 C   0  0  0  0  0  0  0  0  0  0  0  0
    0.7500    1.2990    0.0000 C   0  0  0  0  0  0  0  0  0  0  0  0
   -0.7500    1.2990    0.0000 C   0  0  0  0  0  0  0  0  0  0  0  0
   -1.5000    0.0000    0.0000 C   0  0  0  0  0  0  0  0  0  0  0  0
   -0.7500   -1.2990    0.0000 C   0  0  0  0  0  0  0  0  0  0  0  0
   -1.5000   -2.5981    0.0000 C   0  0  0  0  0  0  0  0  0  0  0  0
   -0.7500   -3.8971    0.0000 N   0  0  0  0  0  0  0  0  0  0  0  0
   -1.5000   -5.1962    0.0000 C   0  0  0  0  0  0  0  0  0  0  0  0
   -3.0000   -5.1962    0.0000 C   0  0  0  0  0  0  0  0  0  0  0  0
   -3.7500   -3.8971    0.0000 O   0  0  0  0  0  0  0  0  0  0  0  0
   -3.7500   -6.4952    0.0000 C   0  0  0  0  0  0  0  0  0  0  0  0
   -5.2500   -6.4952    0.0000 C   0  0  0  0  0  0  0  0  0  0  0  0
   -6.0000   -7.7942    0.0000 C   0  0  0  0  0  0  0  0  0  0  0  0
   -7.5000   -7.7942    0.0000 C   0  0  0  0  0  0  0  0  0  0  0  0
   -8.2500   -9.0933    0.0000 C   0  0  0  0  0  0  0  0  0  0  0  0
   -7.5000  -10.3923    0.0000 C   0  0  0  0  0  0  0  0  0  0  0  0
   -6.0000  -10.3923    0.0000 C   0  0  0  0  0  0  0  0  0  0  0  0
   -5.2500   -9.0933    0.0000 C   0  0  0  0  0  0  0  0  0  0  0  0
   -3.0000   -7.7942    0.0000 N   0  0  0  0  0  0  0  0  0  0  0  0
   -1.5000   -7.7942    0.0000 C   0  0  0  0  0  0  0  0  0  0  0  0
   -0.7500   -6.4952    0.0000 O   0  0  0  0  0  0  0  0  0  0  0  0
   -0.7500   -9.0933    0.0000 C   0  0  0  0  0  0  0  0  0  0  0  0
    0.7500   -9.0933    0.0000 C   0  0  0  0  0  0  0  0  0  0  0  0
    1.5000  -10.3923    0.0000 C   0  0  0  0  0  0  0  0  0  0  0  0
    3.0000  -10.3923    0.0000 N   0  0  0  0  0  0  0  0  0  0  0  0
    0.7500  -11.6913    0.0000 O   0  0  0  0  0  0  0  0  0  0  0  0
   -1.5000  -10.3923    0.0000 N   0  0  0  0  0  0  0  0  0  0  0  0
   -3.0000  -10.3923    0.0000 C   0  0  0  0  0  0  0  0  0  0  0  0
   -3.7500   -9.0933    0.0000 O   0  0  0  0  0  0  0  0  0  0  0  0
   -3.7500  -11.6913    0.0000 C   0  0  0  0  0  0  0  0  0  0  0  0
   -3.0000  -12.9904    0.0000 C   0  0  0  0  0  0  0  0  0  0  0  0
   -3.7500  -14.2894    0.0000 C   0  0  0  0  0  0  0  0  0  0  0  0
   -5.2500  -14.2894    0.0000 C   0  0  0  0  0  0  0  0  0  0  0  0
   -6.0000  -15.5885    0.0000 C   0  0  0  0  0  0  0  0  0  0  0  0
   -7.5000  -15.5885    0.0000 C   0  0  0  0  0  0  0  0  0  0  0  0
   -8.2500  -14.2894    0.0000 C   0  0  0  0  0  0  0  0  0  0  0  0
   -7.5000  -12.9904    0.0000 C   0  0  0  0  0  0  0  0  0  0  0  0
   -6.0000  -12.9904    0.0000 C   0  0  0  0  0  0  0  0  0  0  0  0
   -5.2500  -11.6913    0.0000 N   0  0  0  0  0  0  0  0  0  0  0  0
  1  2  1  0
  2  3  1  0
  2  4  1  0
  2  5  1  0
  5  6  1  0
  6  7  2  0
  8  6  1  1
  8  9  1  0
 10  9  1  1
 10 11  1  0
 11 12  1  0
 12 13  1  0
 13 14  1  0
 15 14  1  1
 15 16  1  0
 16 17  1  0
 17 18  1  0
 18 19  1  0
 19 20  1  6
 19 21  1  0
 21 22  1  1
 22 23  1  0
 23 24  2  0
 24 25  1  0
 25 26  2  0
 26 27  1  0
 27 28  2  0
 21 29  1  0
 29 30  1  0
 30 31  2  0
 30 32  1  0
 32 33  1  6
 33 34  1  0
 34 35  1  0
 34 36  2  0
 32 37  1  0
 37 38  1  0
 38 39  2  0
 38 40  1  0
 40 41  2  0
 41 42  1  0
 42 43  2  0
 43 44  1  0
 44 45  2  0
 45 46  1  0
 46 47  2  0
 47 48  1  0
 48 49  2  0
 17  8  1  0
 28 23  1  0
 49 40  1  0
 15 10  1  0
 48 43  1  0
M  END
>  <assay_description>  (67) 
Inhibition of recombinant human BSEP expressed in baculovirus infected sf9 cell membrane vesicles assessed as reduction in ATP or AMP-dependent [3H]-taurocholic acid uptake in to vesicles preincubated for 5 mins followed by ATP/AMP addition measured after 5 mins by scintillation counting method

>  <molecule_pref_name>  (67) 
SAQUINAVIR

>  <canonical_smiles>  (67) 
CC(C)(C)NC(=O)[C@@H]1C[C@@H]2CCCC[C@@H]2CN1C[C@@H](O)[C@H](Cc1ccccc1)NC(=O)[C@H](CC(N)=O)NC(=O)c1ccc2ccccc2n1

>  <pchembl_value>  (67) 
5.54

>  <standard_type>  (67) 
IC50

>  <standard_relation>  (67) 
=

>  <standard_value>  (67) 
2900.0

>  <standard_units>  (67) 
nM

>  <target_pref_name>  (67) 
Bile salt export pump

>  <target_organism>  (67) 
Homo sapiens

$$$$
CHEMBL388590
     RDKit          2D

 22 24  0  0  0  0  0  0  0  0999 V2000
    1.2990   -5.8573    0.0000 C   0  0  0  0  0  0  0  0  0  0  0  0
   -0.0000   -5.1073    0.0000 C   0  0  0  0  0  0  0  0  0  0  0  0
   -0.0000   -3.6073    0.0000 C   0  0  0  0  0  0  0  0  0  0  0  0
    1.2135   -2.7256    0.0000 O   0  0  0  0  0  0  0  0  0  0  0  0
    0.7500   -1.2990    0.0000 C   0  0  0  0  0  0  0  0  0  0  0  0
    1.5000    0.0000    0.0000 C   0  0  0  0  0  0  0  0  0  0  0  0
    0.7500    1.2990    0.0000 C   0  0  0  0  0  0  0  0  0  0  0  0
   -0.7500    1.2990    0.0000 C   0  0  0  0  0  0  0  0  0  0  0  0
   -1.5000    0.0000    0.0000 C   0  0  0  0  0  0  0  0  0  0  0  0
   -0.7500   -1.2990    0.0000 C   0  0  0  0  0  0  0  0  0  0  0  0
   -1.2135   -2.7256    0.0000 C   0  0  0  0  0  0  0  0  0  0  0  0
   -2.6401   -3.1891    0.0000 C   0  0  0  0  0  0  0  0  0  0  0  0
   -3.7548   -2.1855    0.0000 O   0  0  0  0  0  0  0  0  0  0  0  0
   -2.9520   -4.6564    0.0000 C   0  0  0  0  0  0  0  0  0  0  0  0
   -4.3786   -5.1199    0.0000 C   0  0  0  0  0  0  0  0  0  0  0  0
   -4.6904   -6.5871    0.0000 C   0  0  0  0  0  0  0  0  0  0  0  0
   -6.1170   -7.0506    0.0000 Br  0  0  0  0  0  0  0  0  0  0  0  0
   -3.5757   -7.5908    0.0000 C   0  0  0  0  0  0  0  0  0  0  0  0
   -3.8876   -9.0580    0.0000 O   0  0  0  0  0  0  0  0  0  0  0  0
   -2.1491   -7.1273    0.0000 C   0  0  0  0  0  0  0  0  0  0  0  0
   -1.0344   -8.1310    0.0000 Br  0  0  0  0  0  0  0  0  0  0  0  0
   -1.8373   -5.6601    0.0000 C   0  0  0  0  0  0  0  0  0  0  0  0
  1  2  1  0
  2  3  1  0
  3  4  1  0
  4  5  1  0
  5  6  2  0
  6  7  1  0
  7  8  2  0
  8  9  1  0
  9 10  2  0
 10 11  1  0
 11 12  1  0
 12 13  2  0
 12 14  1  0
 14 15  2  0
 15 16  1  0
 16 17  1  0
 16 18  2  0
 18 19  1  0
 18 20  1  0
 20 21  1  0
 20 22  2  0
 11  3  2  0
 22 14  1  0
 10  5  1  0
M  END
>  <assay_description>  (68) 
Inhibition of recombinant human BSEP expressed in baculovirus infected sf9 cell membrane vesicles assessed as reduction in ATP or AMP-dependent [3H]-taurocholic acid uptake in to vesicles preincubated for 5 mins followed by ATP/AMP addition measured after 5 mins by scintillation counting method

>  <molecule_pref_name>  (68) 
BENZBROMARONE

>  <canonical_smiles>  (68) 
CCc1oc2ccccc2c1C(=O)c1cc(Br)c(O)c(Br)c1

>  <pchembl_value>  (68) 
4.80

>  <standard_type>  (68) 
IC50

>  <standard_relation>  (68) 
=

>  <standard_value>  (68) 
15900.0

>  <standard_units>  (68) 
nM

>  <target_pref_name>  (68) 
Bile salt export pump

>  <target_organism>  (68) 
Homo sapiens

$$$$
CHEMBL409
     RDKit          2D

 29 30  0  0  0  0  0  0  0  0999 V2000
    3.7500   -2.3971    0.0000 C   0  0  0  0  0  0  0  0  0  0  0  0
    3.7500   -3.8971    0.0000 C   0  0  0  0  0  0  0  0  0  0  0  0
    5.2500   -3.8971    0.0000 O   0  0  0  0  0  0  0  0  0  0  0  0
    2.2500   -3.8971    0.0000 C   0  0  0  0  0  0  0  0  0  0  0  0
    1.5000   -2.5981    0.0000 S   0  0  0  0  0  0  0  0  0  0  0  0
    2.7990   -1.8481    0.0000 O   0  0  0  0  0  0  0  0  0  0  0  0
    0.2010   -3.3481    0.0000 O   0  0  0  0  0  0  0  0  0  0  0  0
    0.7500   -1.2990    0.0000 C   0  0  0  0  0  0  0  0  0  0  0  0
    1.5000    0.0000    0.0000 C   0  0  0  0  0  0  0  0  0  0  0  0
    0.7500    1.2990    0.0000 C   0  0  0  0  0  0  0  0  0  0  0  0
   -0.7500    1.2990    0.0000 C   0  0  0  0  0  0  0  0  0  0  0  0
   -1.5000    2.5981    0.0000 F   0  0  0  0  0  0  0  0  0  0  0  0
   -1.5000    0.0000    0.0000 C   0  0  0  0  0  0  0  0  0  0  0  0
   -0.7500   -1.2990    0.0000 C   0  0  0  0  0  0  0  0  0  0  0  0
    3.7500   -5.3971    0.0000 C   0  0  0  0  0  0  0  0  0  0  0  0
    2.4510   -6.1471    0.0000 O   0  0  0  0  0  0  0  0  0  0  0  0
    5.0490   -6.1471    0.0000 N   0  0  0  0  0  0  0  0  0  0  0  0
    5.0490   -7.6471    0.0000 C   0  0  0  0  0  0  0  0  0  0  0  0
    3.7500   -8.3971    0.0000 C   0  0  0  0  0  0  0  0  0  0  0  0
    3.7500   -9.8971    0.0000 C   0  0  0  0  0  0  0  0  0  0  0  0
    5.0490  -10.6471    0.0000 C   0  0  0  0  0  0  0  0  0  0  0  0
    5.0490  -12.1471    0.0000 C   0  0  0  0  0  0  0  0  0  0  0  0
    5.0490  -13.6471    0.0000 N   0  0  0  0  0  0  0  0  0  0  0  0
    6.3481   -9.8971    0.0000 C   0  0  0  0  0  0  0  0  0  0  0  0
    7.6471  -10.6471    0.0000 C   0  0  0  0  0  0  0  0  0  0  0  0
    8.9462  -11.3971    0.0000 F   0  0  0  0  0  0  0  0  0  0  0  0
    8.3971   -9.3481    0.0000 F   0  0  0  0  0  0  0  0  0  0  0  0
    6.8971  -11.9462    0.0000 F   0  0  0  0  0  0  0  0  0  0  0  0
    6.3481   -8.3971    0.0000 C   0  0  0  0  0  0  0  0  0  0  0  0
  1  2  1  0
  2  3  1  0
  2  4  1  0
  4  5  1  0
  5  6  2  0
  5  7  2  0
  5  8  1  0
  8  9  2  0
  9 10  1  0
 10 11  2  0
 11 12  1  0
 11 13  1  0
 13 14  2  0
  2 15  1  0
 15 16  2  0
 15 17  1  0
 17 18  1  0
 18 19  2  0
 19 20  1  0
 20 21  2  0
 21 22  1  0
 22 23  3  0
 21 24  1  0
 24 25  1  0
 25 26  1  0
 25 27  1  0
 25 28  1  0
 24 29  2  0
 14  8  1  0
 29 18  1  0
M  END
>  <assay_description>  (69) 
Inhibition of recombinant human BSEP expressed in baculovirus infected sf9 cell membrane vesicles assessed as reduction in ATP or AMP-dependent [3H]-taurocholic acid uptake in to vesicles preincubated for 5 mins followed by ATP/AMP addition measured after 5 mins by scintillation counting method

>  <molecule_pref_name>  (69) 
BICALUTAMIDE

>  <canonical_smiles>  (69) 
CC(O)(CS(=O)(=O)c1ccc(F)cc1)C(=O)Nc1ccc(C#N)c(C(F)(F)F)c1

>  <pchembl_value>  (69) 
4.53

>  <standard_type>  (69) 
IC50

>  <standard_relation>  (69) 
=

>  <standard_value>  (69) 
29300.0

>  <standard_units>  (69) 
nM

>  <target_pref_name>  (69) 
Bile salt export pump

>  <target_organism>  (69) 
Homo sapiens

$$$$
CHEMBL957
     RDKit          2D

 39 42  0  0  0  0  0  0  0  0999 V2000
    3.7500   -1.2990    0.0000 C   0  0  0  0  0  0  0  0  0  0  0  0
    3.0000    0.0000    0.0000 O   0  0  0  0  0  0  0  0  0  0  0  0
    1.5000    0.0000    0.0000 C   0  0  0  0  0  0  0  0  0  0  0  0
    0.7500   -1.2990    0.0000 C   0  0  0  0  0  0  0  0  0  0  0  0
   -0.7500   -1.2990    0.0000 C   0  0  0  0  0  0  0  0  0  0  0  0
   -1.5000    0.0000    0.0000 C   0  0  0  0  0  0  0  0  0  0  0  0
   -0.7500    1.2990    0.0000 C   0  0  0  0  0  0  0  0  0  0  0  0
    0.7500    1.2990    0.0000 C   0  0  0  0  0  0  0  0  0  0  0  0
    1.5000    2.5981    0.0000 O   0  0  0  0  0  0  0  0  0  0  0  0
    0.7500    3.8971    0.0000 C   0  0  0  0  0  0  0  0  0  0  0  0
    1.5000    5.1962    0.0000 C   0  0  0  0  0  0  0  0  0  0  0  0
    3.0000    5.1962    0.0000 N   0  0  0  0  0  0  0  0  0  0  0  0
    3.7500    6.4952    0.0000 S   0  0  0  0  0  0  0  0  0  0  0  0
    2.4510    7.2452    0.0000 O   0  0  0  0  0  0  0  0  0  0  0  0
    5.0490    5.7452    0.0000 O   0  0  0  0  0  0  0  0  0  0  0  0
    4.5000    7.7942    0.0000 C   0  0  0  0  0  0  0  0  0  0  0  0
    6.0000    7.7942    0.0000 C   0  0  0  0  0  0  0  0  0  0  0  0
    6.7500    9.0933    0.0000 C   0  0  0  0  0  0  0  0  0  0  0  0
    6.0000   10.3923    0.0000 C   0  0  0  0  0  0  0  0  0  0  0  0
    6.7500   11.6913    0.0000 C   0  0  0  0  0  0  0  0  0  0  0  0
    8.0490   10.9413    0.0000 C   0  0  0  0  0  0  0  0  0  0  0  0
    5.4510   12.4413    0.0000 C   0  0  0  0  0  0  0  0  0  0  0  0
    7.5000   12.9904    0.0000 C   0  0  0  0  0  0  0  0  0  0  0  0
    4.5000   10.3923    0.0000 C   0  0  0  0  0  0  0  0  0  0  0  0
    3.7500    9.0933    0.0000 C   0  0  0  0  0  0  0  0  0  0  0  0
    0.7500    6.4952    0.0000 N   0  0  0  0  0  0  0  0  0  0  0  0
   -0.7500    6.4952    0.0000 C   0  0  0  0  0  0  0  0  0  0  0  0
   -1.5000    7.7942    0.0000 C   0  0  0  0  0  0  0  0  0  0  0  0
   -0.7500    9.0933    0.0000 N   0  0  0  0  0  0  0  0  0  0  0  0
   -1.5000   10.3923    0.0000 C   0  0  0  0  0  0  0  0  0  0  0  0
   -3.0000   10.3923    0.0000 C   0  0  0  0  0  0  0  0  0  0  0  0
   -3.7500    9.0933    0.0000 C   0  0  0  0  0  0  0  0  0  0  0  0
   -3.0000    7.7942    0.0000 N   0  0  0  0  0  0  0  0  0  0  0  0
   -1.5000    5.1962    0.0000 N   0  0  0  0  0  0  0  0  0  0  0  0
   -0.7500    3.8971    0.0000 C   0  0  0  0  0  0  0  0  0  0  0  0
   -1.5000    2.5981    0.0000 O   0  0  0  0  0  0  0  0  0  0  0  0
   -3.0000    2.5981    0.0000 C   0  0  0  0  0  0  0  0  0  0  0  0
   -3.7500    1.2990    0.0000 C   0  0  0  0  0  0  0  0  0  0  0  0
   -5.2500    1.2990    0.0000 O   0  0  0  0  0  0  0  0  0  0  0  0
  1  2  1  0
  2  3  1  0
  3  4  2  0
  4  5  1  0
  5  6  2  0
  6  7  1  0
  7  8  2  0
  8  9  1  0
  9 10  1  0
 10 11  1  0
 11 12  1  0
 12 13  1  0
 13 14  2  0
 13 15  2  0
 13 16  1  0
 16 17  2  0
 17 18  1  0
 18 19  2  0
 19 20  1  0
 20 21  1  0
 20 22  1  0
 20 23  1  0
 19 24  1  0
 24 25  2  0
 11 26  2  0
 26 27  1  0
 27 28  1  0
 28 29  2  0
 29 30  1  0
 30 31  2  0
 31 32  1  0
 32 33  2  0
 27 34  2  0
 34 35  1  0
 35 36  1  0
 36 37  1  0
 37 38  1  0
 38 39  1  0
  8  3  1  0
 35 10  2  0
 25 16  1  0
 33 28  1  0
M  END
>  <assay_description>  (70) 
Inhibition of recombinant human BSEP expressed in baculovirus infected sf9 cell membrane vesicles assessed as reduction in ATP or AMP-dependent [3H]-taurocholic acid uptake in to vesicles preincubated for 5 mins followed by ATP/AMP addition measured after 5 mins by scintillation counting method

>  <molecule_pref_name>  (70) 
BOSENTAN

>  <canonical_smiles>  (70) 
COc1ccccc1Oc1c(NS(=O)(=O)c2ccc(C(C)(C)C)cc2)nc(-c2ncccn2)nc1OCCO

>  <pchembl_value>  (70) 
4.54

>  <standard_type>  (70) 
IC50

>  <standard_relation>  (70) 
=

>  <standard_value>  (70) 
29000.0

>  <standard_units>  (70) 
nM

>  <target_pref_name>  (70) 
Bile salt export pump

>  <target_organism>  (70) 
Homo sapiens

$$$$
CHEMBL139
     RDKit          2D

 19 20  0  0  0  0  0  0  0  0999 V2000
    3.0000   -2.5981    0.0000 O   0  0  0  0  0  0  0  0  0  0  0  0
    3.7500   -1.2990    0.0000 C   0  0  0  0  0  0  0  0  0  0  0  0
    5.2500   -1.2990    0.0000 O   0  0  0  0  0  0  0  0  0  0  0  0
    3.0000    0.0000    0.0000 C   0  0  0  0  0  0  0  0  0  0  0  0
    1.5000    0.0000    0.0000 C   0  0  0  0  0  0  0  0  0  0  0  0
    0.7500   -1.2990    0.0000 C   0  0  0  0  0  0  0  0  0  0  0  0
   -0.7500   -1.2990    0.0000 C   0  0  0  0  0  0  0  0  0  0  0  0
   -1.5000    0.0000    0.0000 C   0  0  0  0  0  0  0  0  0  0  0  0
   -0.7500    1.2990    0.0000 C   0  0  0  0  0  0  0  0  0  0  0  0
    0.7500    1.2990    0.0000 C   0  0  0  0  0  0  0  0  0  0  0  0
    1.5000    2.5981    0.0000 N   0  0  0  0  0  0  0  0  0  0  0  0
    0.7500    3.8971    0.0000 C   0  0  0  0  0  0  0  0  0  0  0  0
    1.5000    5.1962    0.0000 C   0  0  0  0  0  0  0  0  0  0  0  0
    3.0000    5.1962    0.0000 Cl  0  0  0  0  0  0  0  0  0  0  0  0
    0.7500    6.4952    0.0000 C   0  0  0  0  0  0  0  0  0  0  0  0
   -0.7500    6.4952    0.0000 C   0  0  0  0  0  0  0  0  0  0  0  0
   -1.5000    5.1962    0.0000 C   0  0  0  0  0  0  0  0  0  0  0  0
   -0.7500    3.8971    0.0000 C   0  0  0  0  0  0  0  0  0  0  0  0
   -1.5000    2.5981    0.0000 Cl  0  0  0  0  0  0  0  0  0  0  0  0
  1  2  2  0
  2  3  1  0
  2  4  1  0
  4  5  1  0
  5  6  2  0
  6  7  1  0
  7  8  2  0
  8  9  1  0
  9 10  2  0
 10 11  1  0
 11 12  1  0
 12 13  2  0
 13 14  1  0
 13 15  1  0
 15 16  2  0
 16 17  1  0
 17 18  2  0
 18 19  1  0
 10  5  1  0
 18 12  1  0
M  END
>  <assay_description>  (71) 
Inhibition of recombinant human BSEP expressed in baculovirus infected sf9 cell membrane vesicles assessed as reduction in ATP or AMP-dependent [3H]-taurocholic acid uptake in to vesicles preincubated for 5 mins followed by ATP/AMP addition measured after 5 mins by scintillation counting method

>  <molecule_pref_name>  (71) 
DICLOFENAC

>  <canonical_smiles>  (71) 
O=C(O)Cc1ccccc1Nc1c(Cl)cccc1Cl

>  <pchembl_value>  (71) 
4.36

>  <standard_type>  (71) 
IC50

>  <standard_relation>  (71) 
=

>  <standard_value>  (71) 
44000.0

>  <standard_units>  (71) 
nM

>  <target_pref_name>  (71) 
Bile salt export pump

>  <target_organism>  (71) 
Homo sapiens

$$$$
CHEMBL806
     RDKit          2D

 19 19  0  0  0  0  0  0  0  0999 V2000
    6.0000   -2.5981    0.0000 C   0  0  0  0  0  0  0  0  0  0  0  0
    5.2500   -1.2990    0.0000 C   0  0  0  0  0  0  0  0  0  0  0  0
    6.0000    0.0000    0.0000 C   0  0  0  0  0  0  0  0  0  0  0  0
    3.7500   -1.2990    0.0000 C   0  0  0  0  0  0  0  0  0  0  0  0
    3.0000   -2.5981    0.0000 O   0  0  0  0  0  0  0  0  0  0  0  0
    3.0000    0.0000    0.0000 N   0  0  0  0  0  0  0  0  0  0  0  0
    1.5000    0.0000    0.0000 C   0  0  0  0  0  0  0  0  0  0  0  0
    0.7500   -1.2990    0.0000 C   0  0  0  0  0  0  0  0  0  0  0  0
   -0.7500   -1.2990    0.0000 C   0  0  0  0  0  0  0  0  0  0  0  0
   -1.5000    0.0000    0.0000 C   0  0  0  0  0  0  0  0  0  0  0  0
   -3.0000    0.0000    0.0000 N   0  0  0  0  0  4  0  0  0  0  0  0
   -3.7500    1.2990    0.0000 O   0  0  0  0  0  0  0  0  0  0  0  0
   -3.7500   -1.2990    0.0000 O   0  0  0  0  0  1  0  0  0  0  0  0
   -0.7500    1.2990    0.0000 C   0  0  0  0  0  0  0  0  0  0  0  0
   -1.5000    2.5981    0.0000 C   0  0  0  0  0  0  0  0  0  0  0  0
   -2.2500    3.8971    0.0000 F   0  0  0  0  0  0  0  0  0  0  0  0
   -0.2010    3.3481    0.0000 F   0  0  0  0  0  0  0  0  0  0  0  0
   -2.7990    1.8481    0.0000 F   0  0  0  0  0  0  0  0  0  0  0  0
    0.7500    1.2990    0.0000 C   0  0  0  0  0  0  0  0  0  0  0  0
  1  2  1  0
  2  3  1  0
  2  4  1  0
  4  5  2  0
  4  6  1  0
  6  7  1  0
  7  8  2  0
  8  9  1  0
  9 10  2  0
 10 11  1  0
 11 12  2  0
 11 13  1  0
 10 14  1  0
 14 15  1  0
 15 16  1  0
 15 17  1  0
 15 18  1  0
 14 19  2  0
 19  7  1  0
M  CHG  2  11   1  13  -1
M  END
>  <assay_description>  (72) 
Inhibition of recombinant human BSEP expressed in baculovirus infected sf9 cell membrane vesicles assessed as reduction in ATP or AMP-dependent [3H]-taurocholic acid uptake in to vesicles preincubated for 5 mins followed by ATP/AMP addition measured after 5 mins by scintillation counting method

>  <molecule_pref_name>  (72) 
FLUTAMIDE

>  <canonical_smiles>  (72) 
CC(C)C(=O)Nc1ccc([N+](=O)[O-])c(C(F)(F)F)c1

>  <pchembl_value>  (72) 
4.17

>  <standard_type>  (72) 
IC50

>  <standard_relation>  (72) 
=

>  <standard_value>  (72) 
68000.0

>  <standard_units>  (72) 
nM

>  <target_pref_name>  (72) 
Bile salt export pump

>  <target_organism>  (72) 
Homo sapiens

$$$$
CHEMBL686
     RDKit          2D

 18 19  0  0  0  0  0  0  0  0999 V2000
    3.0000    0.0000    0.0000 C   0  0  0  0  0  0  0  0  0  0  0  0
    1.5000    0.0000    0.0000 C   0  0  0  0  0  0  0  0  0  0  0  0
    0.7500   -1.2990    0.0000 C   0  0  0  0  0  0  0  0  0  0  0  0
   -0.7500   -1.2990    0.0000 C   0  0  0  0  0  0  0  0  0  0  0  0
   -1.5000    0.0000    0.0000 C   0  0  0  0  0  0  0  0  0  0  0  0
   -0.7500    1.2990    0.0000 C   0  0  0  0  0  0  0  0  0  0  0  0
   -1.5000    2.5981    0.0000 N   0  0  0  0  0  0  0  0  0  0  0  0
   -3.0000    2.5981    0.0000 C   0  0  0  0  0  0  0  0  0  0  0  0
   -3.7500    1.2990    0.0000 C   0  0  0  0  0  0  0  0  0  0  0  0
   -5.2500    1.2990    0.0000 C   0  0  0  0  0  0  0  0  0  0  0  0
   -6.0000    2.5981    0.0000 C   0  0  0  0  0  0  0  0  0  0  0  0
   -5.2500    3.8971    0.0000 C   0  0  0  0  0  0  0  0  0  0  0  0
   -3.7500    3.8971    0.0000 C   0  0  0  0  0  0  0  0  0  0  0  0
   -3.0000    5.1962    0.0000 C   0  0  0  0  0  0  0  0  0  0  0  0
   -3.7500    6.4952    0.0000 O   0  0  0  0  0  0  0  0  0  0  0  0
   -1.5000    5.1962    0.0000 O   0  0  0  0  0  0  0  0  0  0  0  0
    0.7500    1.2990    0.0000 C   0  0  0  0  0  0  0  0  0  0  0  0
    1.5000    2.5981    0.0000 C   0  0  0  0  0  0  0  0  0  0  0  0
  1  2  1  0
  2  3  2  0
  3  4  1  0
  4  5  2  0
  5  6  1  0
  6  7  1  0
  7  8  1  0
  8  9  2  0
  9 10  1  0
 10 11  2  0
 11 12  1  0
 12 13  2  0
 13 14  1  0
 14 15  2  0
 14 16  1  0
  6 17  2  0
 17 18  1  0
 17  2  1  0
 13  8  1  0
M  END
>  <assay_description>  (73) 
Inhibition of recombinant human BSEP expressed in baculovirus infected sf9 cell membrane vesicles assessed as reduction in ATP or AMP-dependent [3H]-taurocholic acid uptake in to vesicles preincubated for 5 mins followed by ATP/AMP addition measured after 5 mins by scintillation counting method

>  <molecule_pref_name>  (73) 
MEFENAMIC ACID

>  <canonical_smiles>  (73) 
Cc1cccc(Nc2ccccc2C(=O)O)c1C

>  <pchembl_value>  (73) 
4.24

>  <standard_type>  (73) 
IC50

>  <standard_relation>  (73) 
=

>  <standard_value>  (73) 
57000.0

>  <standard_units>  (73) 
nM

>  <target_pref_name>  (73) 
Bile salt export pump

>  <target_organism>  (73) 
Homo sapiens

$$$$
CHEMBL374478
     RDKit          2D

 59 63  0  0  0  0  0  0  0  0999 V2000
    0.4940    8.3646    0.0000 C   0  0  0  0  0  0  0  0  0  0  0  0
   -1.0057    8.3332    0.0000 O   0  0  0  0  0  0  0  0  0  0  0  0
   -1.7283    7.0188    0.0000 C   0  0  0  0  0  0  0  0  0  0  0  0
   -0.5195    6.1307    0.0000 C   0  0  0  0  0  0  0  0  0  0  0  0
    0.4184    4.9601    0.0000 C   0  0  0  0  0  0  0  0  0  0  0  0
    1.0212    3.5866    0.0000 O   0  0  0  0  0  0  0  0  0  0  0  0
    0.3943    1.2135    0.0000 C   0  0  0  0  0  0  0  0  0  0  0  0
    0.8578    2.6401    0.0000 C   0  0  0  0  0  0  0  0  0  0  0  0
    1.2760    0.0000    0.0000 O   0  0  0  0  0  0  0  0  0  0  0  0
    0.3943   -1.2135    0.0000 C   0  0  0  0  0  0  0  0  0  0  0  0
    0.7062   -2.6807    0.0000 C   0  0  0  0  0  0  0  0  0  0  0  0
    2.1328   -3.1443    0.0000 C   0  0  0  0  0  0  0  0  0  0  0  0
   -0.4086   -3.6844    0.0000 C   0  0  0  0  0  0  0  0  0  0  0  0
   -0.0967   -5.1517    0.0000 O   0  0  0  0  0  0  0  0  0  0  0  0
   -1.8351   -3.2209    0.0000 C   0  0  0  0  0  0  0  0  0  0  0  0
   -2.9499   -4.2246    0.0000 C   0  0  0  0  0  0  0  0  0  0  0  0
   -2.6380   -5.6918    0.0000 O   0  0  0  0  0  0  0  0  0  0  0  0
   -4.3764   -3.7611    0.0000 C   0  0  0  0  0  0  0  0  0  0  0  0
   -4.6883   -2.2939    0.0000 C   0  0  0  0  0  0  0  0  0  0  0  0
   -6.1149   -1.8303    0.0000 C   0  0  0  0  0  0  0  0  0  0  0  0
   -6.4268   -0.3631    0.0000 N   0  0  0  0  0  0  0  0  0  0  0  0
   -7.8533    0.1004    0.0000 N   0  0  0  0  0  0  0  0  0  0  0  0
   -8.1652    1.5676    0.0000 C   0  0  0  0  0  0  0  0  0  0  0  0
   -9.5918    2.0312    0.0000 C   0  0  0  0  0  0  0  0  0  0  0  0
  -10.7065    1.0275    0.0000 N   0  0  0  0  0  0  0  0  0  0  0  0
  -12.1331    1.4910    0.0000 C   0  0  0  0  0  0  0  0  0  0  0  0
  -10.3946   -0.4398    0.0000 C   0  0  0  0  0  0  0  0  0  0  0  0
   -8.9681   -0.9033    0.0000 C   0  0  0  0  0  0  0  0  0  0  0  0
   -3.5736   -1.2902    0.0000 C   0  0  0  0  0  0  0  0  0  0  0  0
   -3.8855    0.1771    0.0000 O   0  0  0  0  0  0  0  0  0  0  0  0
   -2.1470   -1.7537    0.0000 C   0  0  0  0  0  0  0  0  0  0  0  0
   -1.0323   -0.7500    0.0000 C   0  0  0  0  0  0  0  0  0  0  0  0
   -1.0323    0.7500    0.0000 C   0  0  0  0  0  0  0  0  0  0  0  0
   -2.2458    1.6317    0.0000 O   0  0  0  0  0  0  0  0  0  0  0  0
   -5.8674   -3.5964    0.0000 N   0  0  0  0  0  0  0  0  0  0  0  0
   -7.2649   -3.0515    0.0000 C   0  0  0  0  0  0  0  0  0  0  0  0
   -7.9876   -4.3660    0.0000 O   0  0  0  0  0  0  0  0  0  0  0  0
   -8.4738   -2.1635    0.0000 C   0  0  0  0  0  0  0  0  0  0  0  0
   -9.5120   -3.2461    0.0000 C   0  0  0  0  0  0  0  0  0  0  0  0
   -9.4116   -0.9928    0.0000 C   0  0  0  0  0  0  0  0  0  0  0  0
  -10.0145    0.3807    0.0000 C   0  0  0  0  0  0  0  0  0  0  0  0
  -10.2413    1.8634    0.0000 C   0  0  0  0  0  0  0  0  0  0  0  0
  -10.0767    3.3544    0.0000 C   0  0  0  0  0  0  0  0  0  0  0  0
  -11.5334    3.7122    0.0000 C   0  0  0  0  0  0  0  0  0  0  0  0
   -9.5318    4.7519    0.0000 C   0  0  0  0  0  0  0  0  0  0  0  0
  -10.8462    5.4746    0.0000 O   0  0  0  0  0  0  0  0  0  0  0  0
   -8.6437    5.9608    0.0000 C   0  0  0  0  0  0  0  0  0  0  0  0
   -9.7263    6.9990    0.0000 C   0  0  0  0  0  0  0  0  0  0  0  0
   -7.4731    6.8986    0.0000 C   0  0  0  0  0  0  0  0  0  0  0  0
   -8.2501    8.1817    0.0000 O   0  0  0  0  0  0  0  0  0  0  0  0
   -6.0995    7.5015    0.0000 C   0  0  0  0  0  0  0  0  0  0  0  0
   -6.5180    8.9419    0.0000 C   0  0  0  0  0  0  0  0  0  0  0  0
   -4.6168    7.7283    0.0000 C   0  0  0  0  0  0  0  0  0  0  0  0
   -4.6482    9.2280    0.0000 O   0  0  0  0  0  0  0  0  0  0  0  0
   -3.3651   10.0050    0.0000 C   0  0  0  0  0  0  0  0  0  0  0  0
   -3.3965   11.5047    0.0000 C   0  0  0  0  0  0  0  0  0  0  0  0
   -1.9724    9.4480    0.0000 O   0  0  0  0  0  0  0  0  0  0  0  0
   -3.1259    7.5637    0.0000 C   0  0  0  0  0  0  0  0  0  0  0  0
   -2.5931    8.9659    0.0000 C   0  0  0  0  0  0  0  0  0  0  0  0
  1  2  1  0
  3  2  1  1
  3  4  1  0
  4  5  2  0
  5  6  1  0
  6  7  1  0
  7  8  1  6
  7  9  1  0
  9 10  1  0
 10 11  2  0
 11 12  1  0
 11 13  1  0
 13 14  1  0
 13 15  2  0
 15 16  1  0
 16 17  1  0
 16 18  2  0
 18 19  1  0
 19 20  1  0
 20 21  2  0
 21 22  1  0
 22 23  1  0
 23 24  1  0
 24 25  1  0
 25 26  1  0
 25 27  1  0
 27 28  1  0
 19 29  2  0
 29 30  1  0
 29 31  1  0
 31 32  2  0
 32 33  1  0
 33 34  2  0
 18 35  1  0
 35 36  1  0
 36 37  2  0
 36 38  1  0
 38 39  1  0
 38 40  2  0
 40 41  1  0
 41 42  2  0
 42 43  1  0
 43 44  1  6
 43 45  1  0
 45 46  1  6
 45 47  1  0
 47 48  1  1
 47 49  1  0
 49 50  1  1
 49 51  1  0
 51 52  1  1
 51 53  1  0
 53 54  1  6
 54 55  1  0
 55 56  1  0
 55 57  2  0
 53 58  1  0
 58 59  1  6
 58  3  1  0
 33  7  1  0
 32 10  1  0
 31 15  1  0
 28 22  1  0
M  END
>  <assay_description>  (74) 
Inhibition of recombinant human BSEP expressed in baculovirus infected sf9 cell membrane vesicles assessed as reduction in ATP or AMP-dependent [3H]-taurocholic acid uptake in to vesicles preincubated for 5 mins followed by ATP/AMP addition measured after 5 mins by scintillation counting method

>  <molecule_pref_name>  (74) 
RIFAMPIN

>  <canonical_smiles>  (74) 
CO[C@H]1/C=C/O[C@@]2(C)Oc3c(C)c(O)c4c(O)c(c(/C=N/N5CCN(C)CC5)c(O)c4c3C2=O)NC(=O)/C(C)=C\C=C\[C@H](C)[C@H](O)[C@@H](C)[C@@H](O)[C@@H](C)[C@H](OC(C)=O)[C@@H]1C

>  <pchembl_value>  (74) 
4.73

>  <standard_type>  (74) 
IC50

>  <standard_relation>  (74) 
=

>  <standard_value>  (74) 
18700.0

>  <standard_units>  (74) 
nM

>  <target_pref_name>  (74) 
Bile salt export pump

>  <target_organism>  (74) 
Homo sapiens

$$$$
CHEMBL1136
     RDKit          2D

 58 62  0  0  0  0  0  0  0  0999 V2000
   -0.7339   -4.5199    0.0000 C   0  0  0  0  0  0  0  0  0  0  0  0
   -0.5104   -3.0367    0.0000 C   0  0  0  0  0  0  0  0  0  0  0  0
   -1.6831   -2.1015    0.0000 C   0  0  0  0  0  0  0  0  0  0  0  0
   -2.8559   -3.0367    0.0000 O   0  0  0  0  0  0  0  0  0  0  0  0
   -4.3183   -3.3705    0.0000 C   0  0  0  0  0  0  0  0  0  0  0  0
   -4.3183   -4.8705    0.0000 O   0  0  0  0  0  0  0  0  0  0  0  0
   -5.7806   -3.0367    0.0000 C   0  0  0  0  0  0  0  0  0  0  0  0
   -6.4315   -4.3881    0.0000 C   0  0  0  0  0  0  0  0  0  0  0  0
   -6.9534   -2.1015    0.0000 C   0  0  0  0  0  0  0  0  0  0  0  0
   -8.1261   -3.0367    0.0000 O   0  0  0  0  0  0  0  0  0  0  0  0
   -7.6042   -0.7500    0.0000 C   0  0  0  0  0  0  0  0  0  0  0  0
   -9.0666   -1.0838    0.0000 C   0  0  0  0  0  0  0  0  0  0  0  0
   -7.6042    0.7500    0.0000 C   0  0  0  0  0  0  0  0  0  0  0  0
   -9.0666    1.0838    0.0000 O   0  0  0  0  0  0  0  0  0  0  0  0
   -9.5087    2.5171    0.0000 C   0  0  0  0  0  0  0  0  0  0  0  0
   -8.4885    3.6167    0.0000 O   0  0  0  0  0  0  0  0  0  0  0  0
   -8.9306    5.0501    0.0000 C   0  0  0  0  0  0  0  0  0  0  0  0
   -7.9104    6.1497    0.0000 C   0  0  0  0  0  0  0  0  0  0  0  0
  -10.3930    5.3839    0.0000 C   0  0  0  0  0  0  0  0  0  0  0  0
  -11.4133    4.2843    0.0000 C   0  0  0  0  0  0  0  0  0  0  0  0
  -12.8757    4.6181    0.0000 N   0  0  0  0  0  0  0  0  0  0  0  0
  -13.3178    6.0514    0.0000 C   0  0  0  0  0  0  0  0  0  0  0  0
  -13.8959    3.5185    0.0000 C   0  0  0  0  0  0  0  0  0  0  0  0
  -10.9711    2.8509    0.0000 C   0  0  0  0  0  0  0  0  0  0  0  0
  -11.9914    1.7513    0.0000 O   0  0  0  0  0  0  0  0  0  0  0  0
   -6.9534    2.1015    0.0000 C   0  0  0  0  0  0  0  0  0  0  0  0
   -8.4492    2.2135    0.0000 C   0  0  0  0  0  0  0  0  0  0  0  0
   -7.3955    3.5348    0.0000 O   0  0  0  0  0  0  0  0  0  0  0  0
   -6.3753    4.6344    0.0000 C   0  0  0  0  0  0  0  0  0  0  0  0
   -5.7806    3.0367    0.0000 C   0  0  0  0  0  0  0  0  0  0  0  0
   -4.3183    3.3705    0.0000 C   0  0  0  0  0  0  0  0  0  0  0  0
   -4.3183    4.8705    0.0000 C   0  0  0  0  0  0  0  0  0  0  0  0
   -2.8559    3.0367    0.0000 C   0  0  0  0  0  0  0  0  0  0  0  0
   -2.2050    4.3881    0.0000 O   0  0  0  0  0  0  0  0  0  0  0  0
   -1.6831    2.1015    0.0000 C   0  0  0  0  0  0  0  0  0  0  0  0
   -0.5104    3.0367    0.0000 C   0  0  0  0  0  0  0  0  0  0  0  0
   -1.0323    0.7500    0.0000 C   0  0  0  0  0  0  0  0  0  0  0  0
    0.3943    1.2135    0.0000 N   0  0  0  0  0  0  0  0  0  0  0  0
    0.8578    2.6401    0.0000 C   0  0  0  0  0  0  0  0  0  0  0  0
    2.3250    2.9520    0.0000 C   0  0  0  0  0  0  0  0  0  0  0  0
    2.7886    4.3786    0.0000 C   0  0  0  0  0  0  0  0  0  0  0  0
    4.2558    4.6904    0.0000 C   0  0  0  0  0  0  0  0  0  0  0  0
    4.7193    6.1170    0.0000 N   0  0  0  0  0  0  0  0  0  0  0  0
    3.8376    7.3305    0.0000 C   0  0  0  0  0  0  0  0  0  0  0  0
    4.7193    8.5441    0.0000 N   0  0  0  0  0  0  0  0  0  0  0  0
    6.1459    8.0805    0.0000 C   0  0  0  0  0  0  0  0  0  0  0  0
    7.3594    8.9622    0.0000 C   0  0  0  0  0  0  0  0  0  0  0  0
    8.7297    8.3521    0.0000 C   0  0  0  0  0  0  0  0  0  0  0  0
    9.9433    9.2338    0.0000 C   0  0  0  0  0  0  0  0  0  0  0  0
    9.7865   10.7256    0.0000 C   0  0  0  0  0  0  0  0  0  0  0  0
    8.4162   11.3357    0.0000 N   0  0  0  0  0  0  0  0  0  0  0  0
    7.2026   10.4540    0.0000 C   0  0  0  0  0  0  0  0  0  0  0  0
    6.1459    6.5805    0.0000 C   0  0  0  0  0  0  0  0  0  0  0  0
    1.2760    0.0000    0.0000 C   0  0  0  0  0  0  0  0  0  0  0  0
    2.7760    0.0000    0.0000 O   0  0  0  0  0  0  0  0  0  0  0  0
    0.3943   -1.2135    0.0000 O   0  0  0  0  0  0  0  0  0  0  0  0
   -1.0323   -0.7500    0.0000 C   0  0  0  0  0  0  0  0  0  0  0  0
   -0.4427   -2.1293    0.0000 C   0  0  0  0  0  0  0  0  0  0  0  0
  1  2  1  0
  3  2  1  1
  3  4  1  0
  4  5  1  0
  5  6  2  0
  5  7  1  0
  7  8  1  6
  7  9  1  0
  9 10  2  0
  9 11  1  0
 11 12  1  6
 11 13  1  0
 13 14  1  1
 15 14  1  1
 15 16  1  0
 16 17  1  0
 17 18  1  1
 17 19  1  0
 19 20  1  0
 20 21  1  1
 21 22  1  0
 21 23  1  0
 20 24  1  0
 24 25  1  6
 13 26  1  0
 26 27  1  1
 26 28  1  0
 28 29  1  0
 26 30  1  0
 30 31  1  0
 31 32  1  1
 31 33  1  0
 33 34  2  0
 33 35  1  0
 35 36  1  6
 35 37  1  0
 37 38  1  1
 38 39  1  0
 39 40  1  0
 40 41  1  0
 41 42  1  0
 42 43  1  0
 43 44  1  0
 44 45  2  0
 45 46  1  0
 46 47  1  0
 47 48  2  0
 48 49  1  0
 49 50  2  0
 50 51  1  0
 51 52  2  0
 46 53  2  0
 38 54  1  0
 54 55  2  0
 54 56  1  0
 56 57  1  0
 57 58  1  1
 57  3  1  0
 24 15  1  0
 57 37  1  0
 53 43  1  0
 52 47  1  0
M  END
>  <assay_description>  (75) 
Inhibition of recombinant human BSEP expressed in baculovirus infected sf9 cell membrane vesicles assessed as reduction in ATP or AMP-dependent [3H]-taurocholic acid uptake in to vesicles preincubated for 5 mins followed by ATP/AMP addition measured after 5 mins by scintillation counting method

>  <molecule_pref_name>  (75) 
TELITHROMYCIN

>  <canonical_smiles>  (75) 
CC[C@H]1OC(=O)[C@H](C)C(=O)[C@H](C)[C@@H](O[C@@H]2O[C@H](C)C[C@H](N(C)C)[C@H]2O)[C@](C)(OC)C[C@@H](C)C(=O)[C@H](C)[C@H]2N(CCCCn3cnc(-c4cccnc4)c3)C(=O)O[C@]12C

>  <pchembl_value>  (75) 
4.52

>  <standard_type>  (75) 
IC50

>  <standard_relation>  (75) 
=

>  <standard_value>  (75) 
30000.0

>  <standard_units>  (75) 
nM

>  <target_pref_name>  (75) 
Bile salt export pump

>  <target_organism>  (75) 
Homo sapiens

$$$$
CHEMBL1544
     RDKit          2D

 23 24  0  0  0  0  0  0  0  0999 V2000
    3.0000   -2.5981    0.0000 N   0  0  0  0  0  0  0  0  0  0  0  0
    3.7500   -1.2990    0.0000 C   0  0  0  0  0  0  0  0  0  0  0  0
    3.0000    0.0000    0.0000 C   0  0  0  0  0  0  0  0  0  0  0  0
    1.5000    0.0000    0.0000 C   0  0  0  0  0  0  0  0  0  0  0  0
    0.7500   -1.2990    0.0000 C   0  0  0  0  0  0  0  0  0  0  0  0
   -0.7500   -1.2990    0.0000 C   0  0  0  0  0  0  0  0  0  0  0  0
   -1.5000   -2.5981    0.0000 I   0  0  0  0  0  0  0  0  0  0  0  0
   -1.5000    0.0000    0.0000 C   0  0  0  0  0  0  0  0  0  0  0  0
   -3.0000    0.0000    0.0000 O   0  0  0  0  0  0  0  0  0  0  0  0
   -3.7500    1.2990    0.0000 C   0  0  0  0  0  0  0  0  0  0  0  0
   -3.0000    2.5981    0.0000 C   0  0  0  0  0  0  0  0  0  0  0  0
   -3.7500    3.8971    0.0000 C   0  0  0  0  0  0  0  0  0  0  0  0
   -5.2500    3.8971    0.0000 C   0  0  0  0  0  0  0  0  0  0  0  0
   -6.0000    5.1962    0.0000 O   0  0  0  0  0  0  0  0  0  0  0  0
   -6.0000    2.5981    0.0000 C   0  0  0  0  0  0  0  0  0  0  0  0
   -7.5000    2.5981    0.0000 I   0  0  0  0  0  0  0  0  0  0  0  0
   -5.2500    1.2990    0.0000 C   0  0  0  0  0  0  0  0  0  0  0  0
   -0.7500    1.2990    0.0000 C   0  0  0  0  0  0  0  0  0  0  0  0
   -1.5000    2.5981    0.0000 I   0  0  0  0  0  0  0  0  0  0  0  0
    0.7500    1.2990    0.0000 C   0  0  0  0  0  0  0  0  0  0  0  0
    5.2500   -1.2990    0.0000 C   0  0  0  0  0  0  0  0  0  0  0  0
    6.0000    0.0000    0.0000 O   0  0  0  0  0  0  0  0  0  0  0  0
    6.0000   -2.5981    0.0000 O   0  0  0  0  0  0  0  0  0  0  0  0
  2  1  1  1
  2  3  1  0
  3  4  1  0
  4  5  2  0
  5  6  1  0
  6  7  1  0
  6  8  2  0
  8  9  1  0
  9 10  1  0
 10 11  2  0
 11 12  1  0
 12 13  2  0
 13 14  1  0
 13 15  1  0
 15 16  1  0
 15 17  2  0
  8 18  1  0
 18 19  1  0
 18 20  2  0
  2 21  1  0
 21 22  2  0
 21 23  1  0
 20  4  1  0
 17 10  1  0
M  END
>  <assay_description>  (76) 
Inhibition of recombinant human BSEP expressed in baculovirus infected sf21 cell membrane vesicles assessed as reduction in ATP-dependent [3H]-taurocholate uptake in to vesicles after 5 mins by TopCount method

>  <molecule_pref_name>  (76) 
LIOTHYRONINE

>  <canonical_smiles>  (76) 
N[C@@H](Cc1cc(I)c(Oc2ccc(O)c(I)c2)c(I)c1)C(=O)O

>  <pchembl_value>  (76) 
4.95

>  <standard_type>  (76) 
IC50

>  <standard_relation>  (76) 
=

>  <standard_value>  (76) 
11270.0

>  <standard_units>  (76) 
nM

>  <target_pref_name>  (76) 
Bile salt export pump

>  <target_organism>  (76) 
Homo sapiens

$$$$
CHEMBL1159650
     RDKit          2D

 32 35  0  0  0  0  0  0  0  0999 V2000
   -8.6312   -7.1659    0.0000 C   0  0  0  0  0  0  0  0  0  0  0  0
   -7.4177   -6.2842    0.0000 C   0  0  0  0  0  0  0  0  0  0  0  0
   -6.0474   -6.8943    0.0000 C   0  0  0  0  0  0  0  0  0  0  0  0
   -6.0629   -7.7799    0.0000 O   0  0  0  0  0  0  0  0  0  0  0  0
   -4.8338   -6.0126    0.0000 O   0  0  0  0  0  0  0  0  0  0  0  0
   -3.4635   -6.6227    0.0000 C   0  0  0  0  0  0  0  0  0  0  0  0
   -4.2135   -7.9218    0.0000 C   0  0  0  0  0  0  0  0  0  0  0  0
   -5.0927   -8.0297    0.0000 O   0  0  0  0  0  0  0  0  0  0  0  0
   -3.4635   -9.2208    0.0000 C   0  0  0  0  0  0  0  0  0  0  0  0
   -4.2135  -10.5199    0.0000 Cl  0  0  0  0  0  0  0  0  0  0  0  0
   -2.2500   -7.5044    0.0000 C   0  0  0  0  0  0  0  0  0  0  0  0
   -2.2500   -9.0044    0.0000 C   0  0  0  0  0  0  0  0  0  0  0  0
   -1.0365   -6.6227    0.0000 C   0  0  0  0  0  0  0  0  0  0  0  0
   -1.5000   -5.1962    0.0000 C   0  0  0  0  0  0  0  0  0  0  0  0
   -0.7500   -3.8971    0.0000 C   0  0  0  0  0  0  0  0  0  0  0  0
    0.7500   -3.8971    0.0000 C   0  0  0  0  0  0  0  0  0  0  0  0
    1.5000   -2.5981    0.0000 C   0  0  0  0  0  0  0  0  0  0  0  0
    0.7500   -1.2990    0.0000 C   0  0  0  0  0  0  0  0  0  0  0  0
    1.5000    0.0000    0.0000 C   0  0  0  0  0  0  0  0  0  0  0  0
    0.7500    1.2990    0.0000 C   0  0  0  0  0  0  0  0  0  0  0  0
    1.5000    2.5981    0.0000 O   0  0  0  0  0  0  0  0  0  0  0  0
   -0.7500    1.2990    0.0000 C   0  0  0  0  0  0  0  0  0  0  0  0
   -1.5000    0.0000    0.0000 C   0  0  0  0  0  0  0  0  0  0  0  0
   -0.7500   -1.2990    0.0000 C   0  0  0  0  0  0  0  0  0  0  0  0
   -1.6291   -1.1911    0.0000 C   0  0  0  0  0  0  0  0  0  0  0  0
   -1.5000   -2.5981    0.0000 C   0  0  0  0  0  0  0  0  0  0  0  0
   -2.0331   -1.8907    0.0000 F   0  0  0  0  0  0  0  0  0  0  0  0
   -3.0000   -2.5981    0.0000 C   0  0  0  0  0  0  0  0  0  0  0  0
   -3.7500   -1.2990    0.0000 O   0  0  0  0  0  0  0  0  0  0  0  0
   -3.7500   -3.8971    0.0000 C   0  0  0  0  0  0  0  0  0  0  0  0
   -3.0000   -5.1962    0.0000 C   0  0  0  0  0  0  0  0  0  0  0  0
   -4.4854   -4.9873    0.0000 C   0  0  0  0  0  0  0  0  0  0  0  0
  1  2  1  0
  2  3  1  0
  3  4  2  0
  3  5  1  0
  6  5  1  1
  6  7  1  0
  7  8  2  0
  7  9  1  0
  9 10  1  0
  6 11  1  0
 11 12  1  6
 11 13  1  0
 14 13  1  6
 14 15  1  0
 15 16  1  1
 16 17  1  0
 17 18  1  0
 18 19  2  0
 19 20  1  0
 20 21  2  0
 20 22  1  0
 22 23  2  0
 23 24  1  0
 24 25  1  6
 24 26  1  0
 26 27  1  1
 26 28  1  0
 28 29  1  6
 28 30  1  0
 30 31  1  0
 31 32  1  6
 31  6  1  0
 31 14  1  0
 26 15  1  0
 24 18  1  0
M  END
>  <assay_description>  (77) 
Inhibition of recombinant human BSEP expressed in baculovirus infected sf21 cell plasma membrane vesicles assessed as reduction in ATP-dependent [3H]-taurocholate uptake in to vesicles after 5 mins by microbeta filtration method

>  <molecule_pref_name>  (77) 
CLOBETASOL PROPIONATE

>  <canonical_smiles>  (77) 
CCC(=O)O[C@]1(C(=O)CCl)[C@@H](C)C[C@H]2[C@@H]3CCC4=CC(=O)C=C[C@]4(C)[C@@]3(F)[C@@H](O)C[C@@]21C

>  <pchembl_value>  (77) 
5.07

>  <standard_type>  (77) 
IC50

>  <standard_relation>  (77) 
=

>  <standard_value>  (77) 
8500.0

>  <standard_units>  (77) 
nM

>  <target_pref_name>  (77) 
Bile salt export pump

>  <target_organism>  (77) 
Homo sapiens

$$$$
CHEMBL54349
     RDKit          2D

 27 29  0  0  0  0  0  0  0  0999 V2000
   -8.8374   -1.1051    0.0000 C   0  0  0  0  0  0  0  0  0  0  0  0
   -7.7227   -2.1088    0.0000 C   0  0  0  0  0  0  0  0  0  0  0  0
   -6.2961   -1.6453    0.0000 C   0  0  0  0  0  0  0  0  0  0  0  0
   -5.1814   -2.6490    0.0000 N   0  0  0  0  0  0  0  0  0  0  0  0
   -5.4933   -4.1162    0.0000 C   0  0  0  0  0  0  0  0  0  0  0  0
   -6.9199   -4.5797    0.0000 C   0  0  0  0  0  0  0  0  0  0  0  0
   -7.2317   -6.0469    0.0000 C   0  0  0  0  0  0  0  0  0  0  0  0
   -3.7548   -2.1855    0.0000 C   0  0  0  0  0  0  0  0  0  0  0  0
   -3.4430   -0.7182    0.0000 O   0  0  0  0  0  0  0  0  0  0  0  0
   -2.6401   -3.1891    0.0000 C   0  0  0  0  0  0  0  0  0  0  0  0
   -1.2135   -2.7256    0.0000 C   0  0  0  0  0  0  0  0  0  0  0  0
   -0.0000   -3.6073    0.0000 C   0  0  0  0  0  0  0  0  0  0  0  0
   -0.0000   -5.1073    0.0000 C   0  0  0  0  0  0  0  0  0  0  0  0
   -1.2990   -5.8573    0.0000 C   0  0  0  0  0  0  0  0  0  0  0  0
   -1.2990   -7.3573    0.0000 C   0  0  0  0  0  0  0  0  0  0  0  0
   -0.0000   -8.1073    0.0000 C   0  0  0  0  0  0  0  0  0  0  0  0
   -0.0000   -9.6073    0.0000 Cl  0  0  0  0  0  0  0  0  0  0  0  0
    1.2990   -7.3573    0.0000 C   0  0  0  0  0  0  0  0  0  0  0  0
    1.2990   -5.8573    0.0000 C   0  0  0  0  0  0  0  0  0  0  0  0
    1.2135   -2.7256    0.0000 N   0  0  0  0  0  0  0  0  0  0  0  0
    0.7500   -1.2990    0.0000 C   0  0  0  0  0  0  0  0  0  0  0  0
    1.5000    0.0000    0.0000 C   0  0  0  0  0  0  0  0  0  0  0  0
    0.7500    1.2990    0.0000 C   0  0  0  0  0  0  0  0  0  0  0  0
   -0.7500    1.2990    0.0000 C   0  0  0  0  0  0  0  0  0  0  0  0
   -1.5000    2.5981    0.0000 Cl  0  0  0  0  0  0  0  0  0  0  0  0
   -1.5000    0.0000    0.0000 C   0  0  0  0  0  0  0  0  0  0  0  0
   -0.7500   -1.2990    0.0000 N   0  0  0  0  0  0  0  0  0  0  0  0
  1  2  1  0
  2  3  1  0
  3  4  1  0
  4  5  1  0
  5  6  1  0
  6  7  1  0
  4  8  1  0
  8  9  2  0
  8 10  1  0
 10 11  1  0
 11 12  2  0
 12 13  1  0
 13 14  2  0
 14 15  1  0
 15 16  2  0
 16 17  1  0
 16 18  1  0
 18 19  2  0
 12 20  1  0
 20 21  2  0
 21 22  1  0
 22 23  2  0
 23 24  1  0
 24 25  1  0
 24 26  2  0
 26 27  1  0
 27 11  1  0
 19 13  1  0
 27 21  1  0
M  END
>  <assay_description>  (78) 
Inhibition of recombinant human BSEP expressed in baculovirus infected sf21 cell plasma membrane vesicles assessed as reduction in ATP-dependent [3H]-taurocholate uptake in to vesicles after 5 mins by microbeta filtration method

>  <molecule_pref_name>  (78) 
ALPIDEM

>  <canonical_smiles>  (78) 
CCCN(CCC)C(=O)Cc1c(-c2ccc(Cl)cc2)nc2ccc(Cl)cn12

>  <pchembl_value>  (78) 
5.04

>  <standard_type>  (78) 
IC50

>  <standard_relation>  (78) 
=

>  <standard_value>  (78) 
9200.0

>  <standard_units>  (78) 
nM

>  <target_pref_name>  (78) 
Bile salt export pump

>  <target_organism>  (78) 
Homo sapiens

$$$$
CHEMBL157101
     RDKit          2D

 36 40  0  0  0  0  0  0  0  0999 V2000
    3.7500   -1.2990    0.0000 C   0  0  0  0  0  0  0  0  0  0  0  0
    3.0000    0.0000    0.0000 C   0  0  0  0  0  0  0  0  0  0  0  0
    3.7500    1.2990    0.0000 O   0  0  0  0  0  0  0  0  0  0  0  0
    1.5000    0.0000    0.0000 N   0  0  0  0  0  0  0  0  0  0  0  0
    0.7500   -1.2990    0.0000 C   0  0  0  0  0  0  0  0  0  0  0  0
   -0.7500   -1.2990    0.0000 C   0  0  0  0  0  0  0  0  0  0  0  0
   -1.5000    0.0000    0.0000 N   0  0  0  0  0  0  0  0  0  0  0  0
   -3.0000    0.0000    0.0000 C   0  0  0  0  0  0  0  0  0  0  0  0
   -3.7500    1.2990    0.0000 C   0  0  0  0  0  0  0  0  0  0  0  0
   -5.2500    1.2990    0.0000 C   0  0  0  0  0  0  0  0  0  0  0  0
   -6.0000    0.0000    0.0000 C   0  0  0  0  0  0  0  0  0  0  0  0
   -7.5000    0.0000    0.0000 O   0  0  0  0  0  0  0  0  0  0  0  0
   -8.2500    1.2990    0.0000 C   0  0  0  0  0  0  0  0  0  0  0  0
   -9.7500    1.2990    0.0000 C   0  0  0  0  0  0  0  0  0  0  0  0
  -10.6317    0.0855    0.0000 C   0  0  0  0  0  0  0  0  0  0  0  0
  -12.0583    0.5490    0.0000 O   0  0  0  0  0  0  0  0  0  0  0  0
  -12.0583    2.0490    0.0000 C   0  0  0  0  0  0  0  0  0  0  0  0
  -12.3701    3.5163    0.0000 C   0  0  0  0  0  0  0  0  0  0  0  0
  -11.2554    4.5200    0.0000 N   0  0  0  0  0  0  0  0  0  0  0  0
  -11.4122    6.0117    0.0000 C   0  0  0  0  0  0  0  0  0  0  0  0
  -10.0419    6.6218    0.0000 C   0  0  0  0  0  0  0  0  0  0  0  0
   -9.0382    5.5071    0.0000 N   0  0  0  0  0  0  0  0  0  0  0  0
   -9.7882    4.2081    0.0000 C   0  0  0  0  0  0  0  0  0  0  0  0
  -13.5500    1.8922    0.0000 C   0  0  0  0  0  0  0  0  0  0  0  0
  -14.4317    3.1058    0.0000 C   0  0  0  0  0  0  0  0  0  0  0  0
  -15.9235    2.9490    0.0000 C   0  0  0  0  0  0  0  0  0  0  0  0
  -16.5336    1.5787    0.0000 C   0  0  0  0  0  0  0  0  0  0  0  0
  -18.0254    1.4219    0.0000 Cl  0  0  0  0  0  0  0  0  0  0  0  0
  -15.6519    0.3651    0.0000 C   0  0  0  0  0  0  0  0  0  0  0  0
  -14.1602    0.5219    0.0000 C   0  0  0  0  0  0  0  0  0  0  0  0
  -13.2785   -0.6916    0.0000 Cl  0  0  0  0  0  0  0  0  0  0  0  0
  -10.6317    2.5126    0.0000 O   0  0  0  0  0  0  0  0  0  0  0  0
   -5.2500   -1.2990    0.0000 C   0  0  0  0  0  0  0  0  0  0  0  0
   -3.7500   -1.2990    0.0000 C   0  0  0  0  0  0  0  0  0  0  0  0
   -0.7500    1.2990    0.0000 C   0  0  0  0  0  0  0  0  0  0  0  0
    0.7500    1.2990    0.0000 C   0  0  0  0  0  0  0  0  0  0  0  0
  1  2  1  0
  2  3  2  0
  2  4  1  0
  4  5  1  0
  5  6  1  0
  6  7  1  0
  7  8  1  0
  8  9  2  0
  9 10  1  0
 10 11  2  0
 11 12  1  0
 12 13  1  0
 13 14  1  0
 14 15  1  0
 15 16  1  0
 16 17  1  0
 17 18  1  0
 18 19  1  0
 19 20  1  0
 20 21  2  0
 21 22  1  0
 22 23  2  0
 17 24  1  0
 24 25  2  0
 25 26  1  0
 26 27  2  0
 27 28  1  0
 27 29  1  0
 29 30  2  0
 30 31  1  0
 17 32  1  0
 11 33  1  0
 33 34  2  0
  7 35  1  0
 35 36  1  0
 36  4  1  0
 34  8  1  0
 32 14  1  0
 23 19  1  0
 30 24  1  0
M  END
>  <assay_description>  (79) 
Inhibition of recombinant human BSEP expressed in baculovirus infected sf9 cell plasma membrane vesicles assessed as reduction in ATP-dependent [3H]-taurocholate uptake in to vesicles preincubated for 10 mins followed by ATP addition measured after 10 to 15 mins by TopCount method

>  <molecule_pref_name>  (79) 
KETOCONAZOLE

>  <canonical_smiles>  (79) 
CC(=O)N1CCN(c2ccc(OCC3COC(Cn4ccnc4)(c4ccc(Cl)cc4Cl)O3)cc2)CC1

>  <pchembl_value>  (79) 
5.47

>  <standard_type>  (79) 
IC50

>  <standard_relation>  (79) 
=

>  <standard_value>  (79) 
3400.0

>  <standard_units>  (79) 
nM

>  <target_pref_name>  (79) 
Bile salt export pump

>  <target_organism>  (79) 
Homo sapiens

$$$$
CHEMBL710
     RDKit          2D

 27 30  0  0  0  0  0  0  0  0999 V2000
   -6.1650  -10.4436    0.0000 C   0  0  0  0  0  0  0  0  0  0  0  0
   -6.6286   -9.0170    0.0000 C   0  0  0  0  0  0  0  0  0  0  0  0
   -7.0921   -7.5904    0.0000 C   0  0  0  0  0  0  0  0  0  0  0  0
   -8.0551   -9.4805    0.0000 C   0  0  0  0  0  0  0  0  0  0  0  0
   -5.2020   -8.5535    0.0000 N   0  0  0  0  0  0  0  0  0  0  0  0
   -4.8901   -7.0863    0.0000 C   0  0  0  0  0  0  0  0  0  0  0  0
   -6.0048   -6.0826    0.0000 O   0  0  0  0  0  0  0  0  0  0  0  0
   -3.4635   -6.6227    0.0000 C   0  0  0  0  0  0  0  0  0  0  0  0
   -2.2500   -7.5044    0.0000 C   0  0  0  0  0  0  0  0  0  0  0  0
   -1.0365   -6.6227    0.0000 C   0  0  0  0  0  0  0  0  0  0  0  0
   -1.5000   -5.1962    0.0000 C   0  0  0  0  0  0  0  0  0  0  0  0
   -0.7500   -3.8971    0.0000 C   0  0  0  0  0  0  0  0  0  0  0  0
    0.7500   -3.8971    0.0000 C   0  0  0  0  0  0  0  0  0  0  0  0
    1.5000   -2.5981    0.0000 C   0  0  0  0  0  0  0  0  0  0  0  0
    0.7500   -1.2990    0.0000 C   0  0  0  0  0  0  0  0  0  0  0  0
    1.5000    0.0000    0.0000 N   0  0  0  0  0  0  0  0  0  0  0  0
    0.7500    1.2990    0.0000 C   0  0  0  0  0  0  0  0  0  0  0  0
    1.5000    2.5981    0.0000 O   0  0  0  0  0  0  0  0  0  0  0  0
   -0.7500    1.2990    0.0000 C   0  0  0  0  0  0  0  0  0  0  0  0
   -1.5000    0.0000    0.0000 C   0  0  0  0  0  0  0  0  0  0  0  0
   -0.7500   -1.2990    0.0000 C   0  0  0  0  0  0  0  0  0  0  0  0
   -2.2500   -1.2990    0.0000 C   0  0  0  0  0  0  0  0  0  0  0  0
   -1.5000   -2.5981    0.0000 C   0  0  0  0  0  0  0  0  0  0  0  0
   -3.0000   -2.5981    0.0000 C   0  0  0  0  0  0  0  0  0  0  0  0
   -3.7500   -3.8971    0.0000 C   0  0  0  0  0  0  0  0  0  0  0  0
   -3.0000   -5.1962    0.0000 C   0  0  0  0  0  0  0  0  0  0  0  0
   -4.4918   -5.3529    0.0000 C   0  0  0  0  0  0  0  0  0  0  0  0
  1  2  1  0
  2  3  1  0
  2  4  1  0
  2  5  1  0
  5  6  1  0
  6  7  2  0
  8  6  1  6
  8  9  1  0
  9 10  1  0
 11 10  1  6
 11 12  1  0
 12 13  1  1
 13 14  1  0
 15 14  1  6
 15 16  1  0
 16 17  1  0
 17 18  2  0
 17 19  1  0
 19 20  2  0
 20 21  1  0
 21 22  1  6
 21 23  1  0
 23 24  1  6
 24 25  1  0
 25 26  1  0
 26 27  1  6
 26  8  1  0
 26 11  1  0
 23 12  1  0
 21 15  1  0
M  END
>  <assay_description>  (80) 
Inhibition of recombinant human BSEP expressed in baculovirus infected sf9 cell plasma membrane vesicles assessed as reduction in ATP-dependent [3H]-taurocholate uptake in to vesicles preincubated for 10 mins followed by ATP addition measured after 10 to 15 mins by TopCount method

>  <molecule_pref_name>  (80) 
FINASTERIDE

>  <canonical_smiles>  (80) 
CC(C)(C)NC(=O)[C@H]1CC[C@H]2[C@@H]3CC[C@H]4NC(=O)C=C[C@]4(C)[C@H]3CC[C@]12C

>  <pchembl_value>  (80) 
4.55

>  <standard_type>  (80) 
IC50

>  <standard_relation>  (80) 
=

>  <standard_value>  (80) 
28200.0

>  <standard_units>  (80) 
nM

>  <target_pref_name>  (80) 
Bile salt export pump

>  <target_organism>  (80) 
Homo sapiens

$$$$
CHEMBL655
     RDKit          2D

 23 26  0  0  0  0  0  0  0  0999 V2000
    3.9485   -1.0497    0.0000 C   0  0  0  0  0  0  0  0  0  0  0  0
    3.1792   -2.3373    0.0000 C   0  0  0  0  0  0  0  0  0  0  0  0
    3.7687   -3.7166    0.0000 N   0  0  0  0  0  0  0  0  0  0  0  0
    2.6391   -4.7035    0.0000 C   0  0  0  0  0  0  0  0  0  0  0  0
    1.3515   -3.9342    0.0000 C   0  0  0  0  0  0  0  0  0  0  0  0
    1.6852   -2.4718    0.0000 N   0  0  0  0  0  0  0  0  0  0  0  0
    0.7500   -1.2990    0.0000 C   0  0  0  0  0  0  0  0  0  0  0  0
    1.5000    0.0000    0.0000 C   0  0  0  0  0  0  0  0  0  0  0  0
    0.7500    1.2990    0.0000 C   0  0  0  0  0  0  0  0  0  0  0  0
   -0.7500    1.2990    0.0000 C   0  0  0  0  0  0  0  0  0  0  0  0
   -1.5000    2.5981    0.0000 Cl  0  0  0  0  0  0  0  0  0  0  0  0
   -1.5000    0.0000    0.0000 C   0  0  0  0  0  0  0  0  0  0  0  0
   -0.7500   -1.2990    0.0000 C   0  0  0  0  0  0  0  0  0  0  0  0
   -1.6852   -2.4718    0.0000 C   0  0  0  0  0  0  0  0  0  0  0  0
   -3.1476   -2.1380    0.0000 C   0  0  0  0  0  0  0  0  0  0  0  0
   -3.5898   -0.7046    0.0000 C   0  0  0  0  0  0  0  0  0  0  0  0
   -5.0522   -0.3709    0.0000 C   0  0  0  0  0  0  0  0  0  0  0  0
   -6.0724   -1.4704    0.0000 C   0  0  0  0  0  0  0  0  0  0  0  0
   -5.6303   -2.9038    0.0000 C   0  0  0  0  0  0  0  0  0  0  0  0
   -4.1679   -3.2376    0.0000 C   0  0  0  0  0  0  0  0  0  0  0  0
   -3.7258   -4.6709    0.0000 F   0  0  0  0  0  0  0  0  0  0  0  0
   -1.3515   -3.9342    0.0000 N   0  0  0  0  0  0  0  0  0  0  0  0
   -0.0000   -4.5850    0.0000 C   0  0  0  0  0  0  0  0  0  0  0  0
  1  2  1  0
  2  3  2  0
  3  4  1  0
  4  5  2  0
  5  6  1  0
  6  7  1  0
  7  8  2  0
  8  9  1  0
  9 10  2  0
 10 11  1  0
 10 12  1  0
 12 13  2  0
 13 14  1  0
 14 15  1  0
 15 16  2  0
 16 17  1  0
 17 18  2  0
 18 19  1  0
 19 20  2  0
 20 21  1  0
 14 22  2  0
 22 23  1  0
  6  2  1  0
 13  7  1  0
 20 15  1  0
 23  5  1  0
M  END
>  <assay_description>  (81) 
Inhibition of recombinant human BSEP expressed in baculovirus infected sf9 cell plasma membrane vesicles assessed as reduction in ATP-dependent [3H]-taurocholate uptake in to vesicles preincubated for 10 mins followed by ATP addition measured after 10 to 15 mins by TopCount method

>  <molecule_pref_name>  (81) 
MIDAZOLAM

>  <canonical_smiles>  (81) 
Cc1ncc2n1-c1ccc(Cl)cc1C(c1ccccc1F)=NC2

>  <pchembl_value>  (81) 
4.38

>  <standard_type>  (81) 
IC50

>  <standard_relation>  (81) 
=

>  <standard_value>  (81) 
41700.0

>  <standard_units>  (81) 
nM

>  <target_pref_name>  (81) 
Bile salt export pump

>  <target_organism>  (81) 
Homo sapiens

$$$$
CHEMBL1231
     RDKit          2D

 26 27  0  0  0  0  0  0  0  0999 V2000
   13.1913   -3.3481    0.0000 C   0  0  0  0  0  0  0  0  0  0  0  0
   11.8923   -4.0981    0.0000 C   0  0  0  0  0  0  0  0  0  0  0  0
   10.5933   -3.3481    0.0000 N   0  0  0  0  0  0  0  0  0  0  0  0
   10.5933   -1.8481    0.0000 C   0  0  0  0  0  0  0  0  0  0  0  0
   11.8923   -1.0981    0.0000 C   0  0  0  0  0  0  0  0  0  0  0  0
    9.2942   -4.0981    0.0000 C   0  0  0  0  0  0  0  0  0  0  0  0
    7.9952   -3.3481    0.0000 C   0  0  0  0  0  0  0  0  0  0  0  0
    6.6962   -2.5981    0.0000 C   0  0  0  0  0  0  0  0  0  0  0  0
    5.3971   -1.8481    0.0000 C   0  0  0  0  0  0  0  0  0  0  0  0
    4.0981   -2.5981    0.0000 O   0  0  0  0  0  0  0  0  0  0  0  0
    2.7990   -1.8481    0.0000 C   0  0  0  0  0  0  0  0  0  0  0  0
    2.7990   -0.3481    0.0000 O   0  0  0  0  0  0  0  0  0  0  0  0
    1.5000   -2.5981    0.0000 C   0  0  0  0  0  0  0  0  0  0  0  0
    0.2010   -3.3481    0.0000 O   0  0  0  0  0  0  0  0  0  0  0  0
    0.7500   -1.2990    0.0000 C   0  0  0  0  0  0  0  0  0  0  0  0
    1.5000    0.0000    0.0000 C   0  0  0  0  0  0  0  0  0  0  0  0
    0.7500    1.2990    0.0000 C   0  0  0  0  0  0  0  0  0  0  0  0
   -0.7500    1.2990    0.0000 C   0  0  0  0  0  0  0  0  0  0  0  0
   -1.5000    0.0000    0.0000 C   0  0  0  0  0  0  0  0  0  0  0  0
   -0.7500   -1.2990    0.0000 C   0  0  0  0  0  0  0  0  0  0  0  0
    2.2500   -3.8971    0.0000 C   0  0  0  0  0  0  0  0  0  0  0  0
    1.5000   -5.1962    0.0000 C   0  0  0  0  0  0  0  0  0  0  0  0
    2.2500   -6.4952    0.0000 C   0  0  0  0  0  0  0  0  0  0  0  0
    3.7500   -6.4952    0.0000 C   0  0  0  0  0  0  0  0  0  0  0  0
    4.5000   -5.1962    0.0000 C   0  0  0  0  0  0  0  0  0  0  0  0
    3.7500   -3.8971    0.0000 C   0  0  0  0  0  0  0  0  0  0  0  0
  1  2  1  0
  2  3  1  0
  3  4  1  0
  4  5  1  0
  3  6  1  0
  6  7  1  0
  7  8  3  0
  8  9  1  0
  9 10  1  0
 10 11  1  0
 11 12  2  0
 11 13  1  0
 13 14  1  0
 13 15  1  0
 15 16  2  0
 16 17  1  0
 17 18  2  0
 18 19  1  0
 19 20  2  0
 13 21  1  0
 21 22  1  0
 22 23  1  0
 23 24  1  0
 24 25  1  0
 25 26  1  0
 20 15  1  0
 26 21  1  0
M  END
>  <assay_description>  (82) 
Inhibition of recombinant human BSEP expressed in baculovirus infected sf9 cell plasma membrane vesicles assessed as reduction in ATP-dependent [3H]-taurocholate uptake in to vesicles preincubated for 10 mins followed by ATP addition measured after 10 to 15 mins by TopCount method

>  <molecule_pref_name>  (82) 
OXYBUTYNIN

>  <canonical_smiles>  (82) 
CCN(CC)CC#CCOC(=O)C(O)(c1ccccc1)C1CCCCC1

>  <pchembl_value>  (82) 
4.56

>  <standard_type>  (82) 
IC50

>  <standard_relation>  (82) 
=

>  <standard_value>  (82) 
27400.0

>  <standard_units>  (82) 
nM

>  <target_pref_name>  (82) 
Bile salt export pump

>  <target_organism>  (82) 
Homo sapiens

$$$$
CHEMBL1292
     RDKit          2D

 33 37  0  0  0  0  0  0  0  0999 V2000
    3.7500   -9.0933    0.0000 C   0  0  0  0  0  0  0  0  0  0  0  0
    3.0000   -7.7942    0.0000 C   0  0  0  0  0  0  0  0  0  0  0  0
    3.7500   -6.4952    0.0000 C   0  0  0  0  0  0  0  0  0  0  0  0
    1.5000   -7.7942    0.0000 N   0  0  0  0  0  0  0  0  0  0  0  0
    0.7500   -6.4952    0.0000 C   0  0  0  0  0  0  0  0  0  0  0  0
    1.5000   -5.1962    0.0000 C   0  0  0  0  0  0  0  0  0  0  0  0
    0.7500   -3.8971    0.0000 C   0  0  0  0  0  0  0  0  0  0  0  0
    1.5000   -2.5981    0.0000 N   0  0  0  0  0  0  0  0  0  0  0  0
    3.0000   -2.5981    0.0000 C   0  0  0  0  0  0  0  0  0  0  0  0
    3.7500   -3.8971    0.0000 C   0  0  0  0  0  0  0  0  0  0  0  0
    5.2500   -3.8971    0.0000 C   0  0  0  0  0  0  0  0  0  0  0  0
    6.0000   -2.5981    0.0000 C   0  0  0  0  0  0  0  0  0  0  0  0
    7.5000   -2.5981    0.0000 Cl  0  0  0  0  0  0  0  0  0  0  0  0
    5.2500   -1.2990    0.0000 C   0  0  0  0  0  0  0  0  0  0  0  0
    3.7500   -1.2990    0.0000 C   0  0  0  0  0  0  0  0  0  0  0  0
    0.7500   -1.2990    0.0000 C   0  0  0  0  0  0  0  0  0  0  0  0
    1.5000    0.0000    0.0000 C   0  0  0  0  0  0  0  0  0  0  0  0
    0.7500    1.2990    0.0000 C   0  0  0  0  0  0  0  0  0  0  0  0
   -0.7500    1.2990    0.0000 C   0  0  0  0  0  0  0  0  0  0  0  0
   -1.5000    0.0000    0.0000 C   0  0  0  0  0  0  0  0  0  0  0  0
   -0.7500   -1.2990    0.0000 C   0  0  0  0  0  0  0  0  0  0  0  0
   -1.5000   -2.5981    0.0000 N   0  0  0  0  0  0  0  0  0  0  0  0
   -0.7500   -3.8971    0.0000 C   0  0  0  0  0  0  0  0  0  0  0  0
   -1.5000   -5.1962    0.0000 C   0  0  0  0  0  0  0  0  0  0  0  0
   -0.7500   -6.4952    0.0000 C   0  0  0  0  0  0  0  0  0  0  0  0
   -1.5000   -7.7942    0.0000 N   0  0  0  0  0  0  0  0  0  0  0  0
   -3.0000   -7.7942    0.0000 C   0  0  0  0  0  0  0  0  0  0  0  0
   -3.7500   -6.4952    0.0000 C   0  0  0  0  0  0  0  0  0  0  0  0
   -5.2500   -6.4952    0.0000 C   0  0  0  0  0  0  0  0  0  0  0  0
   -6.0000   -7.7942    0.0000 C   0  0  0  0  0  0  0  0  0  0  0  0
   -7.5000   -7.7942    0.0000 Cl  0  0  0  0  0  0  0  0  0  0  0  0
   -5.2500   -9.0933    0.0000 C   0  0  0  0  0  0  0  0  0  0  0  0
   -3.7500   -9.0933    0.0000 C   0  0  0  0  0  0  0  0  0  0  0  0
  1  2  1  0
  2  3  1  0
  2  4  1  0
  4  5  2  0
  5  6  1  0
  6  7  2  0
  7  8  1  0
  8  9  1  0
  9 10  2  0
 10 11  1  0
 11 12  2  0
 12 13  1  0
 12 14  1  0
 14 15  2  0
  8 16  1  0
 16 17  2  0
 17 18  1  0
 18 19  2  0
 19 20  1  0
 20 21  2  0
 21 22  1  0
 22 23  2  0
 23 24  1  0
 24 25  2  0
 25 26  1  0
 26 27  1  0
 27 28  2  0
 28 29  1  0
 29 30  2  0
 30 31  1  0
 30 32  1  0
 32 33  2  0
 25  5  1  0
 33 27  1  0
 23  7  1  0
 15  9  1  0
 21 16  1  0
M  END
>  <assay_description>  (83) 
Inhibition of recombinant human BSEP expressed in baculovirus infected sf9 cell plasma membrane vesicles assessed as reduction in ATP-dependent [3H]-taurocholate uptake in to vesicles preincubated for 10 mins followed by ATP addition measured after 10 to 15 mins by TopCount method

>  <molecule_pref_name>  (83) 
CLOFAZIMINE

>  <canonical_smiles>  (83) 
CC(C)/N=c1\cc2n(-c3ccc(Cl)cc3)c3ccccc3nc-2cc1Nc1ccc(Cl)cc1

>  <pchembl_value>  (83) 
4.89

>  <standard_type>  (83) 
IC50

>  <standard_relation>  (83) 
=

>  <standard_value>  (83) 
12900.0

>  <standard_units>  (83) 
nM

>  <target_pref_name>  (83) 
Bile salt export pump

>  <target_organism>  (83) 
Homo sapiens

$$$$
CHEMBL2220442
     RDKit          2D

 30 32  0  0  0  0  0  0  0  0999 V2000
   -3.7548   -2.1855    0.0000 C   0  0  0  0  0  0  0  0  0  0  0  0
   -2.6401   -3.1891    0.0000 C   0  0  0  0  0  0  0  0  0  0  0  0
   -2.9520   -4.6564    0.0000 C   0  0  0  0  0  0  0  0  0  0  0  0
   -1.2135   -2.7256    0.0000 N   0  0  0  0  0  0  0  0  0  0  0  0
   -0.0000   -3.6073    0.0000 C   0  0  0  0  0  0  0  0  0  0  0  0
   -0.0000   -5.1073    0.0000 C   0  0  0  0  0  0  0  0  0  0  0  0
   -1.2990   -5.8573    0.0000 C   0  0  0  0  0  0  0  0  0  0  0  0
   -1.2990   -7.3573    0.0000 C   0  0  0  0  0  0  0  0  0  0  0  0
   -0.0000   -8.1073    0.0000 O   0  0  0  0  0  0  0  0  0  0  0  0
   -2.5981   -8.1073    0.0000 C   0  0  0  0  0  0  0  0  0  0  0  0
   -2.5981   -9.6073    0.0000 C   0  0  0  0  0  0  0  0  0  0  0  0
   -1.2990  -10.3573    0.0000 O   0  0  0  0  0  0  0  0  0  0  0  0
   -3.8971  -10.3573    0.0000 C   0  0  0  0  0  0  0  0  0  0  0  0
   -3.8971  -11.8573    0.0000 C   0  0  0  0  0  0  0  0  0  0  0  0
   -2.5981  -12.6073    0.0000 O   0  0  0  0  0  0  0  0  0  0  0  0
   -5.1962  -12.6073    0.0000 O   0  0  0  0  0  0  0  0  0  0  0  0
    1.2135   -2.7256    0.0000 C   0  0  0  0  0  0  0  0  0  0  0  0
    2.6401   -3.1891    0.0000 C   0  0  0  0  0  0  0  0  0  0  0  0
    2.9520   -4.6564    0.0000 C   0  0  0  0  0  0  0  0  0  0  0  0
    4.3786   -5.1199    0.0000 C   0  0  0  0  0  0  0  0  0  0  0  0
    5.4933   -4.1162    0.0000 C   0  0  0  0  0  0  0  0  0  0  0  0
    6.9199   -4.5797    0.0000 F   0  0  0  0  0  0  0  0  0  0  0  0
    5.1814   -2.6490    0.0000 C   0  0  0  0  0  0  0  0  0  0  0  0
    3.7548   -2.1855    0.0000 C   0  0  0  0  0  0  0  0  0  0  0  0
    0.7500   -1.2990    0.0000 C   0  0  0  0  0  0  0  0  0  0  0  0
    1.5000    0.0000    0.0000 C   0  0  0  0  0  0  0  0  0  0  0  0
    0.7500    1.2990    0.0000 C   0  0  0  0  0  0  0  0  0  0  0  0
   -0.7500    1.2990    0.0000 C   0  0  0  0  0  0  0  0  0  0  0  0
   -1.5000    0.0000    0.0000 C   0  0  0  0  0  0  0  0  0  0  0  0
   -0.7500   -1.2990    0.0000 C   0  0  0  0  0  0  0  0  0  0  0  0
  1  2  1  0
  2  3  1  0
  2  4  1  0
  4  5  1  0
  5  6  1  0
  6  7  2  0
  7  8  1  0
  8  9  1  0
  8 10  1  0
 10 11  1  0
 11 12  1  0
 11 13  1  0
 13 14  1  0
 14 15  2  0
 14 16  1  0
  5 17  2  0
 17 18  1  0
 18 19  2  0
 19 20  1  0
 20 21  2  0
 21 22  1  0
 21 23  1  0
 23 24  2  0
 17 25  1  0
 25 26  2  0
 26 27  1  0
 27 28  2  0
 28 29  1  0
 29 30  2  0
 30  4  1  0
 24 18  1  0
 30 25  1  0
M  END
>  <assay_description>  (84) 
Inhibition of recombinant human BSEP expressed in baculovirus infected sf9 cell plasma membrane vesicles assessed as reduction in ATP-dependent [3H]-taurocholate uptake in to vesicles preincubated for 10 mins followed by ATP addition measured after 10 to 15 mins by TopCount method

>  <molecule_pref_name>  (84) 
FLUVASTATIN

>  <canonical_smiles>  (84) 
CC(C)n1c(/C=C/C(O)CC(O)CC(=O)O)c(-c2ccc(F)cc2)c2ccccc21

>  <pchembl_value>  (84) 
4.44

>  <standard_type>  (84) 
IC50

>  <standard_relation>  (84) 
=

>  <standard_value>  (84) 
36100.0

>  <standard_units>  (84) 
nM

>  <target_pref_name>  (84) 
Bile salt export pump

>  <target_organism>  (84) 
Homo sapiens

$$$$
CHEMBL939
     RDKit          2D

 31 34  0  0  0  0  0  0  0  0999 V2000
    0.7500   -6.4952    0.0000 C   0  0  0  0  0  0  0  0  0  0  0  0
    1.5000   -5.1962    0.0000 O   0  0  0  0  0  0  0  0  0  0  0  0
    0.7500   -3.8971    0.0000 C   0  0  0  0  0  0  0  0  0  0  0  0
    1.5000   -2.5981    0.0000 C   0  0  0  0  0  0  0  0  0  0  0  0
    0.7500   -1.2990    0.0000 C   0  0  0  0  0  0  0  0  0  0  0  0
    1.5000    0.0000    0.0000 N   0  0  0  0  0  0  0  0  0  0  0  0
    0.7500    1.2990    0.0000 C   0  0  0  0  0  0  0  0  0  0  0  0
   -0.7500    1.2990    0.0000 N   0  0  0  0  0  0  0  0  0  0  0  0
   -1.5000    0.0000    0.0000 C   0  0  0  0  0  0  0  0  0  0  0  0
   -3.0000    0.0000    0.0000 N   0  0  0  0  0  0  0  0  0  0  0  0
   -3.7500    1.2990    0.0000 C   0  0  0  0  0  0  0  0  0  0  0  0
   -3.0000    2.5981    0.0000 C   0  0  0  0  0  0  0  0  0  0  0  0
   -3.7500    3.8971    0.0000 C   0  0  0  0  0  0  0  0  0  0  0  0
   -5.2500    3.8971    0.0000 C   0  0  0  0  0  0  0  0  0  0  0  0
   -6.0000    5.1962    0.0000 F   0  0  0  0  0  0  0  0  0  0  0  0
   -6.0000    2.5981    0.0000 C   0  0  0  0  0  0  0  0  0  0  0  0
   -7.5000    2.5981    0.0000 Cl  0  0  0  0  0  0  0  0  0  0  0  0
   -5.2500    1.2990    0.0000 C   0  0  0  0  0  0  0  0  0  0  0  0
   -0.7500   -1.2990    0.0000 C   0  0  0  0  0  0  0  0  0  0  0  0
   -1.5000   -2.5981    0.0000 C   0  0  0  0  0  0  0  0  0  0  0  0
   -0.7500   -3.8971    0.0000 C   0  0  0  0  0  0  0  0  0  0  0  0
   -1.5000   -5.1962    0.0000 O   0  0  0  0  0  0  0  0  0  0  0  0
   -3.0000   -5.1962    0.0000 C   0  0  0  0  0  0  0  0  0  0  0  0
   -3.7500   -6.4952    0.0000 C   0  0  0  0  0  0  0  0  0  0  0  0
   -5.2500   -6.4952    0.0000 C   0  0  0  0  0  0  0  0  0  0  0  0
   -6.0000   -7.7942    0.0000 N   0  0  0  0  0  0  0  0  0  0  0  0
   -7.5000   -7.7942    0.0000 C   0  0  0  0  0  0  0  0  0  0  0  0
   -8.2500   -9.0933    0.0000 C   0  0  0  0  0  0  0  0  0  0  0  0
   -7.5000  -10.3923    0.0000 O   0  0  0  0  0  0  0  0  0  0  0  0
   -6.0000  -10.3923    0.0000 C   0  0  0  0  0  0  0  0  0  0  0  0
   -5.2500   -9.0933    0.0000 C   0  0  0  0  0  0  0  0  0  0  0  0
  1  2  1  0
  2  3  1  0
  3  4  2  0
  4  5  1  0
  5  6  2  0
  6  7  1  0
  7  8  2  0
  8  9  1  0
  9 10  1  0
 10 11  1  0
 11 12  2  0
 12 13  1  0
 13 14  2  0
 14 15  1  0
 14 16  1  0
 16 17  1  0
 16 18  2  0
  9 19  2  0
 19 20  1  0
 20 21  2  0
 21 22  1  0
 22 23  1  0
 23 24  1  0
 24 25  1  0
 25 26  1  0
 26 27  1  0
 27 28  1  0
 28 29  1  0
 29 30  1  0
 30 31  1  0
 21  3  1  0
 31 26  1  0
 19  5  1  0
 18 11  1  0
M  END
>  <assay_description>  (85) 
Inhibition of recombinant human BSEP expressed in baculovirus infected sf9 cell plasma membrane vesicles assessed as reduction in ATP-dependent [3H]-taurocholate uptake in to vesicles preincubated for 10 mins followed by ATP addition measured after 10 to 15 mins by TopCount method

>  <molecule_pref_name>  (85) 
GEFITINIB

>  <canonical_smiles>  (85) 
COc1cc2ncnc(Nc3ccc(F)c(Cl)c3)c2cc1OCCCN1CCOCC1

>  <pchembl_value>  (85) 
4.96

>  <standard_type>  (85) 
IC50

>  <standard_relation>  (85) 
=

>  <standard_value>  (85) 
10900.0

>  <standard_units>  (85) 
nM

>  <target_pref_name>  (85) 
Bile salt export pump

>  <target_organism>  (85) 
Homo sapiens

$$$$
CHEMBL1484
     RDKit          2D

 35 37  0  0  0  0  0  0  0  0999 V2000
    5.2500   -1.2990    0.0000 C   0  0  0  0  0  0  0  0  0  0  0  0
    3.7500   -1.2990    0.0000 O   0  0  0  0  0  0  0  0  0  0  0  0
    3.0000    0.0000    0.0000 C   0  0  0  0  0  0  0  0  0  0  0  0
    3.7500    1.2990    0.0000 O   0  0  0  0  0  0  0  0  0  0  0  0
    1.5000    0.0000    0.0000 C   0  0  0  0  0  0  0  0  0  0  0  0
    0.7500   -1.2990    0.0000 C   0  0  0  0  0  0  0  0  0  0  0  0
    1.5000   -2.5981    0.0000 C   0  0  0  0  0  0  0  0  0  0  0  0
   -0.7500   -1.2990    0.0000 N   0  0  0  0  0  0  0  0  0  0  0  0
   -1.5000    0.0000    0.0000 C   0  0  0  0  0  0  0  0  0  0  0  0
   -3.0000    0.0000    0.0000 C   0  0  0  0  0  0  0  0  0  0  0  0
   -0.7500    1.2990    0.0000 C   0  0  0  0  0  0  0  0  0  0  0  0
   -1.5000    2.5981    0.0000 C   0  0  0  0  0  0  0  0  0  0  0  0
   -0.7500    3.8971    0.0000 O   0  0  0  0  0  0  0  0  0  0  0  0
   -3.0000    2.5981    0.0000 O   0  0  0  0  0  0  0  0  0  0  0  0
   -3.7500    3.8971    0.0000 C   0  0  0  0  0  0  0  0  0  0  0  0
   -5.2500    3.8971    0.0000 C   0  0  0  0  0  0  0  0  0  0  0  0
   -6.0000    5.1962    0.0000 N   0  0  0  0  0  0  0  0  0  0  0  0
   -7.5000    5.1962    0.0000 C   0  0  0  0  0  0  0  0  0  0  0  0
   -5.2500    6.4952    0.0000 C   0  0  0  0  0  0  0  0  0  0  0  0
   -6.0000    7.7942    0.0000 C   0  0  0  0  0  0  0  0  0  0  0  0
   -5.2500    9.0933    0.0000 C   0  0  0  0  0  0  0  0  0  0  0  0
   -6.0000   10.3923    0.0000 C   0  0  0  0  0  0  0  0  0  0  0  0
   -7.5000   10.3923    0.0000 C   0  0  0  0  0  0  0  0  0  0  0  0
   -8.2500    9.0933    0.0000 C   0  0  0  0  0  0  0  0  0  0  0  0
   -7.5000    7.7942    0.0000 C   0  0  0  0  0  0  0  0  0  0  0  0
    0.7500    1.2990    0.0000 C   0  0  0  0  0  0  0  0  0  0  0  0
    1.5000    2.5981    0.0000 C   0  0  0  0  0  0  0  0  0  0  0  0
    3.0000    2.5981    0.0000 C   0  0  0  0  0  0  0  0  0  0  0  0
    3.7500    3.8971    0.0000 C   0  0  0  0  0  0  0  0  0  0  0  0
    3.0000    5.1962    0.0000 C   0  0  0  0  0  0  0  0  0  0  0  0
    1.5000    5.1962    0.0000 C   0  0  0  0  0  0  0  0  0  0  0  0
    0.7500    6.4952    0.0000 N   0  0  0  0  0  4  0  0  0  0  0  0
   -0.7500    6.4952    0.0000 O   0  0  0  0  0  0  0  0  0  0  0  0
    1.5000    7.7942    0.0000 O   0  0  0  0  0  1  0  0  0  0  0  0
    0.7500    3.8971    0.0000 C   0  0  0  0  0  0  0  0  0  0  0  0
  1  2  1  0
  2  3  1  0
  3  4  2  0
  3  5  1  0
  5  6  2  0
  6  7  1  0
  6  8  1  0
  8  9  1  0
  9 10  1  0
  9 11  2  0
 11 12  1  0
 12 13  2  0
 12 14  1  0
 14 15  1  0
 15 16  1  0
 16 17  1  0
 17 18  1  0
 17 19  1  0
 19 20  1  0
 20 21  2  0
 21 22  1  0
 22 23  2  0
 23 24  1  0
 24 25  2  0
 11 26  1  0
 26 27  1  0
 27 28  2  0
 28 29  1  0
 29 30  2  0
 30 31  1  0
 31 32  1  0
 32 33  2  0
 32 34  1  0
 31 35  2  0
 26  5  1  0
 35 27  1  0
 25 20  1  0
M  CHG  2  32   1  34  -1
M  END
>  <assay_description>  (86) 
Inhibition of recombinant human BSEP expressed in baculovirus infected sf9 cell plasma membrane vesicles assessed as reduction in ATP-dependent [3H]-taurocholate uptake in to vesicles preincubated for 10 mins followed by ATP addition measured after 10 to 15 mins by TopCount method

>  <molecule_pref_name>  (86) 
NICARDIPINE

>  <canonical_smiles>  (86) 
COC(=O)C1=C(C)NC(C)=C(C(=O)OCCN(C)Cc2ccccc2)C1c1cccc([N+](=O)[O-])c1

>  <pchembl_value>  (86) 
5.10

>  <standard_type>  (86) 
IC50

>  <standard_relation>  (86) 
=

>  <standard_value>  (86) 
7900.0

>  <standard_units>  (86) 
nM

>  <target_pref_name>  (86) 
Bile salt export pump

>  <target_organism>  (86) 
Homo sapiens

$$$$
CHEMBL595
     RDKit          2D

 25 27  0  0  0  0  0  0  0  0999 V2000
    3.7500   -1.2990    0.0000 C   0  0  0  0  0  0  0  0  0  0  0  0
    3.0000    0.0000    0.0000 C   0  0  0  0  0  0  0  0  0  0  0  0
    1.5000    0.0000    0.0000 C   0  0  0  0  0  0  0  0  0  0  0  0
    0.7500   -1.2990    0.0000 C   0  0  0  0  0  0  0  0  0  0  0  0
   -0.7500   -1.2990    0.0000 C   0  0  0  0  0  0  0  0  0  0  0  0
   -1.5000    0.0000    0.0000 C   0  0  0  0  0  0  0  0  0  0  0  0
   -3.0000    0.0000    0.0000 C   0  0  0  0  0  0  0  0  0  0  0  0
   -3.7500    1.2990    0.0000 C   0  0  0  0  0  0  0  0  0  0  0  0
   -5.2500    1.2990    0.0000 O   0  0  0  0  0  0  0  0  0  0  0  0
   -6.0000    2.5981    0.0000 C   0  0  0  0  0  0  0  0  0  0  0  0
   -5.2500    3.8971    0.0000 C   0  0  0  0  0  0  0  0  0  0  0  0
   -6.0000    5.1962    0.0000 C   0  0  0  0  0  0  0  0  0  0  0  0
   -7.5000    5.1962    0.0000 C   0  0  0  0  0  0  0  0  0  0  0  0
   -8.2500    6.4952    0.0000 C   0  0  0  0  0  0  0  0  0  0  0  0
   -7.5000    7.7942    0.0000 C   0  0  0  0  0  0  0  0  0  0  0  0
   -8.1101    9.1645    0.0000 S   0  0  0  0  0  0  0  0  0  0  0  0
   -6.9954   10.1682    0.0000 C   0  0  0  0  0  0  0  0  0  0  0  0
   -7.1522   11.6600    0.0000 O   0  0  0  0  0  0  0  0  0  0  0  0
   -5.6963    9.4182    0.0000 N   0  0  0  0  0  0  0  0  0  0  0  0
   -6.0082    7.9510    0.0000 C   0  0  0  0  0  0  0  0  0  0  0  0
   -5.0045    6.8363    0.0000 O   0  0  0  0  0  0  0  0  0  0  0  0
   -8.2500    3.8971    0.0000 C   0  0  0  0  0  0  0  0  0  0  0  0
   -7.5000    2.5981    0.0000 C   0  0  0  0  0  0  0  0  0  0  0  0
   -0.7500    1.2990    0.0000 N   0  0  0  0  0  0  0  0  0  0  0  0
    0.7500    1.2990    0.0000 C   0  0  0  0  0  0  0  0  0  0  0  0
  1  2  1  0
  2  3  1  0
  3  4  2  0
  4  5  1  0
  5  6  2  0
  6  7  1  0
  7  8  1  0
  8  9  1  0
  9 10  1  0
 10 11  2  0
 11 12  1  0
 12 13  2  0
 13 14  1  0
 14 15  1  0
 15 16  1  0
 16 17  1  0
 17 18  2  0
 17 19  1  0
 19 20  1  0
 20 21  2  0
 13 22  1  0
 22 23  2  0
  6 24  1  0
 24 25  2  0
 25  3  1  0
 23 10  1  0
 20 15  1  0
M  END
>  <assay_description>  (87) 
Inhibition of recombinant human BSEP expressed in baculovirus infected sf9 cell plasma membrane vesicles assessed as reduction in ATP-dependent [3H]-taurocholate uptake in to vesicles preincubated for 10 mins followed by ATP addition measured after 10 to 15 mins by TopCount method

>  <molecule_pref_name>  (87) 
PIOGLITAZONE

>  <canonical_smiles>  (87) 
CCc1ccc(CCOc2ccc(CC3SC(=O)NC3=O)cc2)nc1

>  <pchembl_value>  (87) 
6.40

>  <standard_type>  (87) 
IC50

>  <standard_relation>  (87) 
=

>  <standard_value>  (87) 
400.0

>  <standard_units>  (87) 
nM

>  <target_pref_name>  (87) 
Bile salt export pump

>  <target_organism>  (87) 
Homo sapiens

$$$$
CHEMBL444633
     RDKit          2D

 61 66  0  0  0  0  0  0  0  0999 V2000
   -4.9384  -13.3410    0.0000 C   0  0  0  0  0  0  0  0  0  0  0  0
   -3.5219  -13.8343    0.0000 O   0  0  0  0  0  0  0  0  0  0  0  0
   -2.3864  -12.8541    0.0000 C   0  0  0  0  0  0  0  0  0  0  0  0
   -3.2100  -11.6004    0.0000 C   0  0  0  0  0  0  0  0  0  0  0  0
   -3.6810  -10.1763    0.0000 C   0  0  0  0  0  0  0  0  0  0  0  0
   -3.7674   -8.6788    0.0000 O   0  0  0  0  0  0  0  0  0  0  0  0
   -2.3527   -6.6731    0.0000 C   0  0  0  0  0  0  0  0  0  0  0  0
   -3.8527   -6.6731    0.0000 C   0  0  0  0  0  0  0  0  0  0  0  0
   -1.4710   -7.8866    0.0000 O   0  0  0  0  0  0  0  0  0  0  0  0
   -0.0444   -7.4231    0.0000 C   0  0  0  0  0  0  0  0  0  0  0  0
    1.2546   -8.1731    0.0000 C   0  0  0  0  0  0  0  0  0  0  0  0
    1.2546   -9.6731    0.0000 C   0  0  0  0  0  0  0  0  0  0  0  0
    2.5537   -7.4231    0.0000 C   0  0  0  0  0  0  0  0  0  0  0  0
    3.8527   -8.1731    0.0000 O   0  0  0  0  0  0  0  0  0  0  0  0
    2.5537   -5.9231    0.0000 C   0  0  0  0  0  0  0  0  0  0  0  0
    1.2546   -5.1731    0.0000 C   0  0  0  0  0  0  0  0  0  0  0  0
   -0.0444   -5.9231    0.0000 C   0  0  0  0  0  0  0  0  0  0  0  0
   -1.4710   -5.4595    0.0000 C   0  0  0  0  0  0  0  0  0  0  0  0
   -1.9345   -4.0329    0.0000 O   0  0  0  0  0  0  0  0  0  0  0  0
    1.2546   -3.6731    0.0000 C   0  0  0  0  0  0  0  0  0  0  0  0
    0.1399   -2.6694    0.0000 N   0  0  0  0  0  0  0  0  0  0  0  0
    0.7500   -1.2990    0.0000 C   0  0  0  0  0  0  0  0  0  0  0  0
    1.5000    0.0000    0.0000 C   0  0  0  0  0  0  0  0  0  0  0  0
    0.7500    1.2990    0.0000 C   0  0  0  0  0  0  0  0  0  0  0  0
   -0.7500    1.2990    0.0000 N   0  0  0  0  0  0  0  0  0  0  0  0
   -1.5000    2.5981    0.0000 C   0  0  0  0  0  0  0  0  0  0  0  0
   -0.7500    3.8971    0.0000 C   0  0  0  0  0  0  0  0  0  0  0  0
   -1.5000    5.1962    0.0000 C   0  0  0  0  0  0  0  0  0  0  0  0
    0.7500    3.8971    0.0000 C   0  0  0  0  0  0  0  0  0  0  0  0
   -1.5000    0.0000    0.0000 C   0  0  0  0  0  0  0  0  0  0  0  0
   -0.7500   -1.2990    0.0000 C   0  0  0  0  0  0  0  0  0  0  0  0
    2.2418   -1.4558    0.0000 N   0  0  0  0  0  0  0  0  0  0  0  0
    2.5537   -2.9231    0.0000 C   0  0  0  0  0  0  0  0  0  0  0  0
    3.8527   -3.6731    0.0000 C   0  0  0  0  0  0  0  0  0  0  0  0
    5.1928   -4.3470    0.0000 N   0  0  0  0  0  0  0  0  0  0  0  0
    6.3127   -5.3448    0.0000 C   0  0  0  0  0  0  0  0  0  0  0  0
    7.4482   -4.3646    0.0000 O   0  0  0  0  0  0  0  0  0  0  0  0
    7.1363   -6.5985    0.0000 C   0  0  0  0  0  0  0  0  0  0  0  0
    8.4868   -5.9456    0.0000 C   0  0  0  0  0  0  0  0  0  0  0  0
    7.6073   -8.0226    0.0000 C   0  0  0  0  0  0  0  0  0  0  0  0
    7.6937   -9.5201    0.0000 C   0  0  0  0  0  0  0  0  0  0  0  0
    7.3896  -10.9890    0.0000 C   0  0  0  0  0  0  0  0  0  0  0  0
    6.7156  -12.3291    0.0000 C   0  0  0  0  0  0  0  0  0  0  0  0
    7.9563  -13.1721    0.0000 C   0  0  0  0  0  0  0  0  0  0  0  0
    5.7178  -13.4490    0.0000 C   0  0  0  0  0  0  0  0  0  0  0  0
    6.6980  -14.5845    0.0000 O   0  0  0  0  0  0  0  0  0  0  0  0
    4.4641  -14.2726    0.0000 C   0  0  0  0  0  0  0  0  0  0  0  0
    5.1170  -15.6231    0.0000 C   0  0  0  0  0  0  0  0  0  0  0  0
    3.0400  -14.7436    0.0000 C   0  0  0  0  0  0  0  0  0  0  0  0
    3.3211  -16.2171    0.0000 O   0  0  0  0  0  0  0  0  0  0  0  0
    1.5425  -14.8300    0.0000 C   0  0  0  0  0  0  0  0  0  0  0  0
    1.4327  -16.3260    0.0000 C   0  0  0  0  0  0  0  0  0  0  0  0
    0.0737  -14.5259    0.0000 C   0  0  0  0  0  0  0  0  0  0  0  0
   -0.4196  -15.9425    0.0000 O   0  0  0  0  0  0  0  0  0  0  0  0
    0.5606  -17.0779    0.0000 C   0  0  0  0  0  0  0  0  0  0  0  0
    2.0340  -16.7968    0.0000 C   0  0  0  0  0  0  0  0  0  0  0  0
    0.0673  -18.4945    0.0000 O   0  0  0  0  0  0  0  0  0  0  0  0
   -1.2664  -13.8519    0.0000 C   0  0  0  0  0  0  0  0  0  0  0  0
   -2.1095  -15.0926    0.0000 C   0  0  0  0  0  0  0  0  0  0  0  0
    3.8527   -5.1731    0.0000 C   0  0  0  0  0  0  0  0  0  0  0  0
    5.1517   -5.9231    0.0000 O   0  0  0  0  0  0  0  0  0  0  0  0
  1  2  1  0
  3  2  1  1
  3  4  1  0
  4  5  2  0
  5  6  1  0
  6  7  1  0
  7  8  1  1
  7  9  1  0
  9 10  1  0
 10 11  2  0
 11 12  1  0
 11 13  1  0
 13 14  1  0
 13 15  2  0
 15 16  1  0
 16 17  2  0
 17 18  1  0
 18 19  2  0
 16 20  1  0
 20 21  2  0
 21 22  1  0
 22 23  1  0
 23 24  1  0
 24 25  1  0
 25 26  1  0
 26 27  1  0
 27 28  1  0
 27 29  1  0
 25 30  1  0
 30 31  1  0
 22 32  1  0
 32 33  1  0
 33 34  2  0
 34 35  1  0
 35 36  1  0
 36 37  2  0
 36 38  1  0
 38 39  1  0
 38 40  2  0
 40 41  1  0
 41 42  2  0
 42 43  1  0
 43 44  1  6
 43 45  1  0
 45 46  1  6
 45 47  1  0
 47 48  1  1
 47 49  1  0
 49 50  1  1
 49 51  1  0
 51 52  1  1
 51 53  1  0
 53 54  1  6
 54 55  1  0
 55 56  1  0
 55 57  2  0
 53 58  1  0
 58 59  1  6
 34 60  1  0
 60 61  2  0
 58  3  1  0
 18  7  1  0
 33 20  1  0
 17 10  1  0
 31 22  1  0
 60 15  1  0
M  END
>  <assay_description>  (88) 
Inhibition of recombinant human BSEP expressed in baculovirus infected sf9 cell plasma membrane vesicles assessed as reduction in ATP-dependent [3H]-taurocholate uptake in to vesicles preincubated for 10 mins followed by ATP addition measured after 10 to 15 mins by TopCount method

>  <molecule_pref_name>  (88) 
RIFABUTIN

>  <canonical_smiles>  (88) 
CO[C@H]1/C=C/O[C@@]2(C)Oc3c(C)c(O)c4c(c3C2=O)C2=NC3(CCN(CC(C)C)CC3)NC2=C(NC(=O)/C(C)=C\C=C\[C@H](C)[C@H](O)[C@@H](C)[C@@H](O)[C@@H](C)[C@H](OC(C)=O)[C@@H]1C)C4=O

>  <pchembl_value>  (88) 
4.57

>  <standard_type>  (88) 
IC50

>  <standard_relation>  (88) 
=

>  <standard_value>  (88) 
26700.0

>  <standard_units>  (88) 
nM

>  <target_pref_name>  (88) 
Bile salt export pump

>  <target_organism>  (88) 
Homo sapiens

$$$$
CHEMBL1064
     RDKit          2D

 30 32  0  0  0  0  0  0  0  0999 V2000
    7.5000   -2.5981    0.0000 C   0  0  0  0  0  0  0  0  0  0  0  0
    6.7500   -1.2990    0.0000 C   0  0  0  0  0  0  0  0  0  0  0  0
    5.2500   -1.2990    0.0000 C   0  0  0  0  0  0  0  0  0  0  0  0
    5.2500   -2.7990    0.0000 C   0  0  0  0  0  0  0  0  0  0  0  0
    5.2500    0.2010    0.0000 C   0  0  0  0  0  0  0  0  0  0  0  0
    3.7500   -1.2990    0.0000 C   0  0  0  0  0  0  0  0  0  0  0  0
    3.0000   -2.5981    0.0000 O   0  0  0  0  0  0  0  0  0  0  0  0
    3.0000    0.0000    0.0000 O   0  0  0  0  0  0  0  0  0  0  0  0
    1.5000    0.0000    0.0000 C   0  0  0  0  0  0  0  0  0  0  0  0
    0.7500   -1.2990    0.0000 C   0  0  0  0  0  0  0  0  0  0  0  0
   -0.7500   -1.2990    0.0000 C   0  0  0  0  0  0  0  0  0  0  0  0
   -1.5000   -2.5981    0.0000 C   0  0  0  0  0  0  0  0  0  0  0  0
   -1.5000    0.0000    0.0000 C   0  0  0  0  0  0  0  0  0  0  0  0
   -0.7500    1.2990    0.0000 C   0  0  0  0  0  0  0  0  0  0  0  0
   -1.5000    2.5981    0.0000 C   0  0  0  0  0  0  0  0  0  0  0  0
   -0.7500    3.8971    0.0000 C   0  0  0  0  0  0  0  0  0  0  0  0
    0.7500    3.8971    0.0000 C   0  0  0  0  0  0  0  0  0  0  0  0
    1.5000    5.1962    0.0000 C   0  0  0  0  0  0  0  0  0  0  0  0
    1.5000    2.5981    0.0000 C   0  0  0  0  0  0  0  0  0  0  0  0
    3.0000    2.5981    0.0000 C   0  0  0  0  0  0  0  0  0  0  0  0
    3.7500    1.2990    0.0000 C   0  0  0  0  0  0  0  0  0  0  0  0
    5.2500    1.2990    0.0000 C   0  0  0  0  0  0  0  0  0  0  0  0
    6.0000   -0.0000    0.0000 C   0  0  0  0  0  0  0  0  0  0  0  0
    7.5000   -0.0000    0.0000 C   0  0  0  0  0  0  0  0  0  0  0  0
    8.2500   -1.2990    0.0000 O   0  0  0  0  0  0  0  0  0  0  0  0
    8.2500    1.2990    0.0000 C   0  0  0  0  0  0  0  0  0  0  0  0
    7.5000    2.5981    0.0000 C   0  0  0  0  0  0  0  0  0  0  0  0
    8.2500    3.8971    0.0000 O   0  0  0  0  0  0  0  0  0  0  0  0
    6.0000    2.5981    0.0000 O   0  0  0  0  0  0  0  0  0  0  0  0
    0.7500    1.2990    0.0000 C   0  0  0  0  0  0  0  0  0  0  0  0
  1  2  1  0
  2  3  1  0
  3  4  1  0
  3  5  1  0
  3  6  1  0
  6  7  2  0
  6  8  1  0
  9  8  1  1
  9 10  1  0
 10 11  1  0
 11 12  1  1
 11 13  1  0
 13 14  2  0
 14 15  1  0
 15 16  2  0
 16 17  1  0
 17 18  1  6
 17 19  1  0
 19 20  1  6
 20 21  1  0
 22 21  1  1
 22 23  1  0
 23 24  1  0
 24 25  1  6
 24 26  1  0
 26 27  1  0
 27 28  2  0
 27 29  1  0
 19 30  1  0
 30  9  1  0
 30 14  1  1
 29 22  1  0
M  END
>  <assay_description>  (89) 
Inhibition of recombinant human BSEP expressed in baculovirus infected sf9 cell plasma membrane vesicles assessed as reduction in ATP-dependent [3H]-taurocholate uptake in to vesicles preincubated for 10 mins followed by ATP addition measured after 10 to 15 mins by TopCount method

>  <molecule_pref_name>  (89) 
SIMVASTATIN

>  <canonical_smiles>  (89) 
CCC(C)(C)C(=O)O[C@H]1C[C@@H](C)C=C2C=C[C@H](C)[C@H](CC[C@@H]3C[C@@H](O)CC(=O)O3)[C@H]21

>  <pchembl_value>  (89) 
4.61

>  <standard_type>  (89) 
IC50

>  <standard_relation>  (89) 
=

>  <standard_value>  (89) 
24700.0

>  <standard_units>  (89) 
nM

>  <target_pref_name>  (89) 
Bile salt export pump

>  <target_organism>  (89) 
Homo sapiens

$$$$
CHEMBL1017
     RDKit          2D

 39 44  0  0  0  0  0  0  0  0999 V2000
   -1.2990   -7.3573    0.0000 C   0  0  0  0  0  0  0  0  0  0  0  0
   -1.2990   -5.8573    0.0000 C   0  0  0  0  0  0  0  0  0  0  0  0
   -0.0000   -5.1073    0.0000 C   0  0  0  0  0  0  0  0  0  0  0  0
   -0.0000   -3.6073    0.0000 C   0  0  0  0  0  0  0  0  0  0  0  0
    1.2135   -2.7256    0.0000 N   0  0  0  0  0  0  0  0  0  0  0  0
    0.7500   -1.2990    0.0000 C   0  0  0  0  0  0  0  0  0  0  0  0
    1.5000    0.0000    0.0000 C   0  0  0  0  0  0  0  0  0  0  0  0
    3.0000    0.0000    0.0000 C   0  0  0  0  0  0  0  0  0  0  0  0
    0.7500    1.2990    0.0000 C   0  0  0  0  0  0  0  0  0  0  0  0
   -0.7500    1.2990    0.0000 C   0  0  0  0  0  0  0  0  0  0  0  0
   -1.5000    2.5981    0.0000 C   0  0  0  0  0  0  0  0  0  0  0  0
   -0.8899    3.9684    0.0000 N   0  0  0  0  0  0  0  0  0  0  0  0
   -2.0046    4.9721    0.0000 C   0  0  0  0  0  0  0  0  0  0  0  0
   -2.0046    6.4721    0.0000 C   0  0  0  0  0  0  0  0  0  0  0  0
   -3.3037    7.2221    0.0000 C   0  0  0  0  0  0  0  0  0  0  0  0
   -4.6027    6.4721    0.0000 C   0  0  0  0  0  0  0  0  0  0  0  0
   -4.6027    4.9721    0.0000 C   0  0  0  0  0  0  0  0  0  0  0  0
   -3.3037    4.2221    0.0000 C   0  0  0  0  0  0  0  0  0  0  0  0
   -2.9918    2.7549    0.0000 N   0  0  0  0  0  0  0  0  0  0  0  0
   -3.9955    1.6402    0.0000 C   0  0  0  0  0  0  0  0  0  0  0  0
   -1.5000    0.0000    0.0000 C   0  0  0  0  0  0  0  0  0  0  0  0
   -0.7500   -1.2990    0.0000 C   0  0  0  0  0  0  0  0  0  0  0  0
   -1.2135   -2.7256    0.0000 N   0  0  0  0  0  0  0  0  0  0  0  0
   -2.6401   -3.1891    0.0000 C   0  0  0  0  0  0  0  0  0  0  0  0
   -3.7548   -2.1855    0.0000 C   0  0  0  0  0  0  0  0  0  0  0  0
   -3.4430   -0.7182    0.0000 C   0  0  0  0  0  0  0  0  0  0  0  0
   -4.5577    0.2855    0.0000 C   0  0  0  0  0  0  0  0  0  0  0  0
   -5.9843   -0.1781    0.0000 C   0  0  0  0  0  0  0  0  0  0  0  0
   -7.0990    0.8256    0.0000 C   0  0  0  0  0  0  0  0  0  0  0  0
   -6.7871    2.2929    0.0000 C   0  0  0  0  0  0  0  0  0  0  0  0
   -7.9018    3.2966    0.0000 C   0  0  0  0  0  0  0  0  0  0  0  0
   -9.3284    2.8330    0.0000 C   0  0  0  0  0  0  0  0  0  0  0  0
   -9.6403    1.3658    0.0000 C   0  0  0  0  0  0  0  0  0  0  0  0
   -8.5256    0.3621    0.0000 C   0  0  0  0  0  0  0  0  0  0  0  0
   -8.8374   -1.1051    0.0000 C   0  0  0  0  0  0  0  0  0  0  0  0
   -7.7227   -2.1088    0.0000 O   0  0  0  0  0  0  0  0  0  0  0  0
  -10.2640   -1.5686    0.0000 O   0  0  0  0  0  0  0  0  0  0  0  0
   -6.2961   -1.6453    0.0000 C   0  0  0  0  0  0  0  0  0  0  0  0
   -5.1814   -2.6490    0.0000 C   0  0  0  0  0  0  0  0  0  0  0  0
  1  2  1  0
  2  3  1  0
  3  4  1  0
  4  5  2  0
  5  6  1  0
  6  7  2  0
  7  8  1  0
  7  9  1  0
  9 10  2  0
 10 11  1  0
 11 12  2  0
 12 13  1  0
 13 14  2  0
 14 15  1  0
 15 16  2  0
 16 17  1  0
 17 18  2  0
 18 19  1  0
 19 20  1  0
 10 21  1  0
 21 22  2  0
 22 23  1  0
 23 24  1  0
 24 25  1  0
 25 26  2  0
 26 27  1  0
 27 28  2  0
 28 29  1  0
 29 30  2  0
 30 31  1  0
 31 32  2  0
 32 33  1  0
 33 34  2  0
 34 35  1  0
 35 36  2  0
 35 37  1  0
 28 38  1  0
 38 39  2  0
 23  4  1  0
 39 25  1  0
 22  6  1  0
 34 29  1  0
 19 11  1  0
 18 13  1  0
M  END
>  <assay_description>  (90) 
Inhibition of recombinant human BSEP expressed in baculovirus infected sf9 cell plasma membrane vesicles assessed as reduction in ATP-dependent [3H]-taurocholate uptake in to vesicles preincubated for 10 mins followed by ATP addition measured after 10 to 15 mins by TopCount method

>  <molecule_pref_name>  (90) 
TELMISARTAN

>  <canonical_smiles>  (90) 
CCCc1nc2c(C)cc(-c3nc4ccccc4n3C)cc2n1Cc1ccc(-c2ccccc2C(=O)O)cc1

>  <pchembl_value>  (90) 
4.79

>  <standard_type>  (90) 
IC50

>  <standard_relation>  (90) 
=

>  <standard_value>  (90) 
16200.0

>  <standard_units>  (90) 
nM

>  <target_pref_name>  (90) 
Bile salt export pump

>  <target_organism>  (90) 
Homo sapiens

$$$$
CHEMBL2218877
     RDKit          2D

 72 73  0  0  0  0  0  0  0  0999 V2000
   -1.9207   -4.8423    0.0000 C   0  0  0  0  0  0  0  0  0  0  0  0
   -0.6814   -3.9973    0.0000 C   0  0  0  0  0  0  0  0  0  0  0  0
    0.6701   -4.6482    0.0000 C   0  0  0  0  0  0  0  0  0  0  0  0
    0.5990   -6.1465    0.0000 O   0  0  0  0  0  0  0  0  0  0  0  0
    1.9094   -3.8032    0.0000 O   0  0  0  0  0  0  0  0  0  0  0  0
    3.2609   -4.4540    0.0000 C   0  0  0  0  0  0  0  0  0  0  0  0
    4.5002   -3.6090    0.0000 C   0  0  0  0  0  0  0  0  0  0  0  0
    4.3881   -2.1132    0.0000 O   0  0  0  0  0  0  0  0  0  0  0  0
    3.0367   -1.4624    0.0000 C   0  0  0  0  0  0  0  0  0  0  0  0
    3.3705    0.0000    0.0000 C   0  0  0  0  0  0  0  0  0  0  0  0
    4.8705    0.0000    0.0000 C   0  0  0  0  0  0  0  0  0  0  0  0
    3.0367    1.4624    0.0000 C   0  0  0  0  0  0  0  0  0  0  0  0
    4.3881    2.1132    0.0000 O   0  0  0  0  0  0  0  0  0  0  0  0
    4.5002    3.6090    0.0000 C   0  0  0  0  0  0  0  0  0  0  0  0
    5.8517    4.2598    0.0000 C   0  0  0  0  0  0  0  0  0  0  0  0
    5.9638    5.7557    0.0000 C   0  0  0  0  0  0  0  0  0  0  0  0
    6.5807    7.1229    0.0000 C   0  0  0  0  0  0  0  0  0  0  0  0
    7.4174    5.3855    0.0000 O   0  0  0  0  0  0  0  0  0  0  0  0
    8.4648    6.4593    0.0000 C   0  0  0  0  0  0  0  0  0  0  0  0
    4.7244    6.6006    0.0000 C   0  0  0  0  0  0  0  0  0  0  0  0
    4.8365    8.0964    0.0000 O   0  0  0  0  0  0  0  0  0  0  0  0
    3.3730    5.9498    0.0000 C   0  0  0  0  0  0  0  0  0  0  0  0
    2.1336    6.7948    0.0000 C   0  0  0  0  0  0  0  0  0  0  0  0
    3.2609    4.4540    0.0000 O   0  0  0  0  0  0  0  0  0  0  0  0
    2.1015    2.6351    0.0000 C   0  0  0  0  0  0  0  0  0  0  0  0
    2.6628    3.8629    0.0000 C   0  0  0  0  0  0  0  0  0  0  0  0
    0.7500    3.2860    0.0000 C   0  0  0  0  0  0  0  0  0  0  0  0
    1.0838    4.7484    0.0000 O   0  0  0  0  0  0  0  0  0  0  0  0
   -0.7500    3.2860    0.0000 O   0  0  0  0  0  0  0  0  0  0  0  0
   -2.1015    2.6351    0.0000 C   0  0  0  0  0  0  0  0  0  0  0  0
   -3.0367    3.8079    0.0000 C   0  0  0  0  0  0  0  0  0  0  0  0
   -2.4887    5.2042    0.0000 C   0  0  0  0  0  0  0  0  0  0  0  0
   -3.0367    1.4624    0.0000 C   0  0  0  0  0  0  0  0  0  0  0  0
   -4.5199    1.2388    0.0000 C   0  0  0  0  0  0  0  0  0  0  0  0
   -3.7867    2.7614    0.0000 O   0  0  0  0  0  0  0  0  0  0  0  0
   -3.3705    0.0000    0.0000 C   0  0  0  0  0  0  0  0  0  0  0  0
   -4.8705    0.0000    0.0000 O   0  0  0  0  0  0  0  0  0  0  0  0
   -3.0367   -1.4624    0.0000 C   0  0  0  0  0  0  0  0  0  0  0  0
   -4.3881   -2.1132    0.0000 C   0  0  0  0  0  0  0  0  0  0  0  0
   -2.1015   -2.6351    0.0000 C   0  0  0  0  0  0  0  0  0  0  0  0
   -3.0367   -3.8079    0.0000 O   0  0  0  0  0  0  0  0  0  0  0  0
   -0.7500   -3.2860    0.0000 C   0  0  0  0  0  0  0  0  0  0  0  0
   -1.0838   -4.7484    0.0000 C   0  0  0  0  0  0  0  0  0  0  0  0
    0.7500   -3.2860    0.0000 C   0  0  0  0  0  0  0  0  0  0  0  0
    2.1015   -2.6351    0.0000 C   0  0  0  0  0  0  0  0  0  0  0  0
    3.5348   -3.0773    0.0000 C   0  0  0  0  0  0  0  0  0  0  0  0
    1.9669   -3.4209    0.0000 O   0  0  0  0  0  0  0  0  0  0  0  0
    5.8517   -4.2598    0.0000 O   0  0  0  0  0  0  0  0  0  0  0  0
    5.9638   -5.7557    0.0000 C   0  0  0  0  0  0  0  0  0  0  0  0
    7.3152   -6.4065    0.0000 C   0  0  0  0  0  0  0  0  0  0  0  0
    4.7244   -6.6006    0.0000 C   0  0  0  0  0  0  0  0  0  0  0  0
    3.3730   -5.9498    0.0000 C   0  0  0  0  0  0  0  0  0  0  0  0
    2.1336   -6.7948    0.0000 N   0  0  0  0  0  0  0  0  0  0  0  0
    2.2457   -8.2906    0.0000 C   0  0  0  0  0  0  0  0  0  0  0  0
    0.7129   -6.3136    0.0000 C   0  0  0  0  0  0  0  0  0  0  0  0
    9.4648    0.0000    0.0000 C   0  0  0  0  0  0  0  0  0  0  0  0
   10.7638    0.7500    0.0000 C   0  0  0  0  0  0  0  0  0  0  0  0
   12.0628   -0.0000    0.0000 C   0  0  0  0  0  0  0  0  0  0  0  0
   13.3619    0.7500    0.0000 C   0  0  0  0  0  0  0  0  0  0  0  0
   14.6609   -0.0000    0.0000 C   0  0  0  0  0  0  0  0  0  0  0  0
   15.9599    0.7500    0.0000 C   0  0  0  0  0  0  0  0  0  0  0  0
   17.2590   -0.0000    0.0000 C   0  0  0  0  0  0  0  0  0  0  0  0
   18.5580    0.7500    0.0000 C   0  0  0  0  0  0  0  0  0  0  0  0
   19.8571   -0.0000    0.0000 C   0  0  0  0  0  0  0  0  0  0  0  0
   21.1561    0.7500    0.0000 C   0  0  0  0  0  0  0  0  0  0  0  0
   22.4551   -0.0000    0.0000 C   0  0  0  0  0  0  0  0  0  0  0  0
   23.7542    0.7500    0.0000 C   0  0  0  0  0  0  0  0  0  0  0  0
   25.0532   -0.0000    0.0000 O   0  0  0  0  0  0  0  0  0  0  0  0
   26.3523    0.7500    0.0000 S   0  0  0  0  0  0  0  0  0  0  0  0
   25.6023    2.0490    0.0000 O   0  0  0  0  0  0  0  0  0  0  0  0
   27.1023   -0.5490    0.0000 O   0  0  0  0  0  0  0  0  0  0  0  0
   27.6513    1.5000    0.0000 O   0  0  0  0  0  0  0  0  0  0  0  0
  1  2  1  0
  2  3  1  0
  3  4  2  0
  3  5  1  0
  6  5  1  1
  6  7  1  0
  7  8  1  6
  9  8  1  1
  9 10  1  0
 10 11  1  6
 10 12  1  0
 12 13  1  1
 14 13  1  6
 14 15  1  0
 15 16  1  0
 16 17  1  1
 16 18  1  0
 18 19  1  0
 16 20  1  0
 20 21  1  6
 20 22  1  0
 22 23  1  1
 22 24  1  0
 12 25  1  0
 25 26  1  6
 25 27  1  0
 27 28  2  0
 27 29  1  0
 29 30  1  0
 30 31  1  1
 31 32  1  0
 30 33  1  0
 33 34  1  1
 33 35  1  0
 33 36  1  0
 36 37  1  1
 36 38  1  0
 38 39  1  6
 38 40  1  0
 40 41  2  0
 40 42  1  0
 42 43  1  1
 42 44  1  0
 44 45  1  0
 45 46  1  1
 45 47  1  0
  7 48  1  0
 48 49  1  0
 49 50  1  6
 49 51  1  0
 51 52  1  0
 52 53  1  6
 53 54  1  0
 53 55  1  0
 56 57  1  0
 57 58  1  0
 58 59  1  0
 59 60  1  0
 60 61  1  0
 61 62  1  0
 62 63  1  0
 63 64  1  0
 64 65  1  0
 65 66  1  0
 66 67  1  0
 67 68  1  0
 68 69  1  0
 69 70  2  0
 69 71  2  0
 69 72  1  0
 52  6  1  0
 45  9  1  0
 24 14  1  0
M  END
>  <assay_description>  (91) 
Inhibition of recombinant human BSEP expressed in baculovirus infected sf9 cell plasma membrane vesicles assessed as reduction in ATP-dependent [3H]-taurocholate uptake in to vesicles preincubated for 10 mins followed by ATP addition measured after 10 to 15 mins by TopCount method

>  <molecule_pref_name>  (91) 
ERYTHROMYCIN ESTOLATE

>  <canonical_smiles>  (91) 
CCC(=O)O[C@H]1[C@H](O[C@@H]2[C@@H](C)[C@H](O[C@H]3C[C@@](C)(OC)[C@@H](O)[C@H](C)O3)[C@@H](C)C(=O)O[C@H](CC)[C@@](C)(O)[C@H](O)[C@@H](C)C(=O)[C@H](C)C[C@@]2(C)O)O[C@H](C)C[C@@H]1N(C)C.CCCCCCCCCCCCOS(=O)(=O)O

>  <pchembl_value>  (91) 
4.89

>  <standard_type>  (91) 
IC50

>  <standard_relation>  (91) 
=

>  <standard_value>  (91) 
13000.0

>  <standard_units>  (91) 
nM

>  <target_pref_name>  (91) 
Bile salt export pump

>  <target_organism>  (91) 
Homo sapiens

$$$$
CHEMBL941
     RDKit          2D

 37 41  0  0  0  0  0  0  0  0999 V2000
    3.0000    0.0000    0.0000 C   0  0  0  0  0  0  0  0  0  0  0  0
    1.5000    0.0000    0.0000 C   0  0  0  0  0  0  0  0  0  0  0  0
    0.7500   -1.2990    0.0000 C   0  0  0  0  0  0  0  0  0  0  0  0
   -0.7500   -1.2990    0.0000 C   0  0  0  0  0  0  0  0  0  0  0  0
   -1.5000    0.0000    0.0000 C   0  0  0  0  0  0  0  0  0  0  0  0
   -3.0000    0.0000    0.0000 N   0  0  0  0  0  0  0  0  0  0  0  0
   -3.7500    1.2990    0.0000 C   0  0  0  0  0  0  0  0  0  0  0  0
   -3.0000    2.5981    0.0000 O   0  0  0  0  0  0  0  0  0  0  0  0
   -5.2500    1.2990    0.0000 C   0  0  0  0  0  0  0  0  0  0  0  0
   -6.0000    2.5981    0.0000 C   0  0  0  0  0  0  0  0  0  0  0  0
   -7.5000    2.5981    0.0000 C   0  0  0  0  0  0  0  0  0  0  0  0
   -8.2500    1.2990    0.0000 C   0  0  0  0  0  0  0  0  0  0  0  0
   -9.7500    1.2990    0.0000 C   0  0  0  0  0  0  0  0  0  0  0  0
  -10.5000    2.5981    0.0000 N   0  0  0  0  0  0  0  0  0  0  0  0
   -9.7500    3.8971    0.0000 C   0  0  0  0  0  0  0  0  0  0  0  0
  -10.5000    5.1962    0.0000 C   0  0  0  0  0  0  0  0  0  0  0  0
  -12.0000    5.1962    0.0000 N   0  0  0  0  0  0  0  0  0  0  0  0
  -12.7500    6.4952    0.0000 C   0  0  0  0  0  0  0  0  0  0  0  0
  -12.7500    3.8971    0.0000 C   0  0  0  0  0  0  0  0  0  0  0  0
  -12.0000    2.5981    0.0000 C   0  0  0  0  0  0  0  0  0  0  0  0
   -7.5000    0.0000    0.0000 C   0  0  0  0  0  0  0  0  0  0  0  0
   -6.0000    0.0000    0.0000 C   0  0  0  0  0  0  0  0  0  0  0  0
   -0.7500    1.2990    0.0000 C   0  0  0  0  0  0  0  0  0  0  0  0
    0.7500    1.2990    0.0000 C   0  0  0  0  0  0  0  0  0  0  0  0
    1.5000    2.5981    0.0000 N   0  0  0  0  0  0  0  0  0  0  0  0
    0.7500    3.8971    0.0000 C   0  0  0  0  0  0  0  0  0  0  0  0
    1.5000    5.1962    0.0000 N   0  0  0  0  0  0  0  0  0  0  0  0
    0.7500    6.4952    0.0000 C   0  0  0  0  0  0  0  0  0  0  0  0
   -0.7500    6.4952    0.0000 C   0  0  0  0  0  0  0  0  0  0  0  0
   -1.5000    5.1962    0.0000 C   0  0  0  0  0  0  0  0  0  0  0  0
   -3.0000    5.1962    0.0000 C   0  0  0  0  0  0  0  0  0  0  0  0
   -3.7500    6.4952    0.0000 C   0  0  0  0  0  0  0  0  0  0  0  0
   -5.2500    6.4952    0.0000 C   0  0  0  0  0  0  0  0  0  0  0  0
   -6.0000    5.1962    0.0000 C   0  0  0  0  0  0  0  0  0  0  0  0
   -5.2500    3.8971    0.0000 N   0  0  0  0  0  0  0  0  0  0  0  0
   -3.7500    3.8971    0.0000 C   0  0  0  0  0  0  0  0  0  0  0  0
   -0.7500    3.8971    0.0000 N   0  0  0  0  0  0  0  0  0  0  0  0
  1  2  1  0
  2  3  2  0
  3  4  1  0
  4  5  2  0
  5  6  1  0
  6  7  1  0
  7  8  2  0
  7  9  1  0
  9 10  2  0
 10 11  1  0
 11 12  2  0
 12 13  1  0
 13 14  1  0
 14 15  1  0
 15 16  1  0
 16 17  1  0
 17 18  1  0
 17 19  1  0
 19 20  1  0
 12 21  1  0
 21 22  2  0
  5 23  1  0
 23 24  2  0
 24 25  1  0
 25 26  1  0
 26 27  2  0
 27 28  1  0
 28 29  2  0
 29 30  1  0
 30 31  1  0
 31 32  2  0
 32 33  1  0
 33 34  2  0
 34 35  1  0
 35 36  2  0
 30 37  2  0
 24  2  1  0
 37 26  1  0
 22  9  1  0
 36 31  1  0
 20 14  1  0
M  END
>  <assay_description>  (92) 
Inhibition of recombinant human BSEP expressed in baculovirus infected sf9 cell plasma membrane vesicles assessed as reduction in ATP-dependent [3H]-taurocholate uptake in to vesicles preincubated for 10 mins followed by ATP addition measured after 10 to 15 mins by TopCount method

>  <molecule_pref_name>  (92) 
IMATINIB

>  <canonical_smiles>  (92) 
Cc1ccc(NC(=O)c2ccc(CN3CCN(C)CC3)cc2)cc1Nc1nccc(-c2cccnc2)n1

>  <pchembl_value>  (92) 
4.60

>  <standard_type>  (92) 
IC50

>  <standard_relation>  (92) 
=

>  <standard_value>  (92) 
25100.0

>  <standard_units>  (92) 
nM

>  <target_pref_name>  (92) 
Bile salt export pump

>  <target_organism>  (92) 
Homo sapiens

$$$$
CHEMBL115
     RDKit          2D

 45 49  0  0  0  0  0  0  0  0999 V2000
   12.5341    1.2141    0.0000 C   0  0  0  0  0  0  0  0  0  0  0  0
   11.0669    0.9023    0.0000 C   0  0  0  0  0  0  0  0  0  0  0  0
    9.5996    0.5904    0.0000 C   0  0  0  0  0  0  0  0  0  0  0  0
   10.7550    2.3695    0.0000 C   0  0  0  0  0  0  0  0  0  0  0  0
   11.3787   -0.5649    0.0000 N   0  0  0  0  0  0  0  0  0  0  0  0
   10.2640   -1.5686    0.0000 C   0  0  0  0  0  0  0  0  0  0  0  0
    8.8374   -1.1051    0.0000 O   0  0  0  0  0  0  0  0  0  0  0  0
   10.5759   -3.0359    0.0000 C   0  0  0  0  0  0  0  0  0  0  0  0
   12.0025   -3.4994    0.0000 C   0  0  0  0  0  0  0  0  0  0  0  0
   12.3143   -4.9666    0.0000 N   0  0  0  0  0  0  0  0  0  0  0  0
   13.7409   -5.4301    0.0000 C   0  0  0  0  0  0  0  0  0  0  0  0
   14.0528   -6.8974    0.0000 C   0  0  0  0  0  0  0  0  0  0  0  0
   12.9381   -7.9010    0.0000 C   0  0  0  0  0  0  0  0  0  0  0  0
   13.2499   -9.3683    0.0000 C   0  0  0  0  0  0  0  0  0  0  0  0
   14.6765   -9.8318    0.0000 C   0  0  0  0  0  0  0  0  0  0  0  0
   15.7912   -8.8281    0.0000 N   0  0  0  0  0  0  0  0  0  0  0  0
   15.4794   -7.3609    0.0000 C   0  0  0  0  0  0  0  0  0  0  0  0
   11.1996   -5.9703    0.0000 C   0  0  0  0  0  0  0  0  0  0  0  0
    9.7730   -5.5068    0.0000 C   0  0  0  0  0  0  0  0  0  0  0  0
    9.4612   -4.0396    0.0000 N   0  0  0  0  0  0  0  0  0  0  0  0
    8.0346   -3.5760    0.0000 C   0  0  0  0  0  0  0  0  0  0  0  0
    6.9199   -4.5797    0.0000 C   0  0  0  0  0  0  0  0  0  0  0  0
    7.2317   -6.0469    0.0000 O   0  0  0  0  0  0  0  0  0  0  0  0
    5.4933   -4.1162    0.0000 C   0  0  0  0  0  0  0  0  0  0  0  0
    4.3786   -5.1199    0.0000 C   0  0  0  0  0  0  0  0  0  0  0  0
    4.6904   -6.5871    0.0000 C   0  0  0  0  0  0  0  0  0  0  0  0
    3.5757   -7.5908    0.0000 C   0  0  0  0  0  0  0  0  0  0  0  0
    2.1491   -7.1273    0.0000 C   0  0  0  0  0  0  0  0  0  0  0  0
    1.0344   -8.1310    0.0000 C   0  0  0  0  0  0  0  0  0  0  0  0
    1.3463   -9.5982    0.0000 C   0  0  0  0  0  0  0  0  0  0  0  0
    2.7729  -10.0617    0.0000 C   0  0  0  0  0  0  0  0  0  0  0  0
    3.8876   -9.0580    0.0000 C   0  0  0  0  0  0  0  0  0  0  0  0
    2.9520   -4.6564    0.0000 C   0  0  0  0  0  0  0  0  0  0  0  0
    1.8373   -5.6601    0.0000 O   0  0  0  0  0  0  0  0  0  0  0  0
    2.6401   -3.1891    0.0000 N   0  0  0  0  0  0  0  0  0  0  0  0
    1.2135   -2.7256    0.0000 C   0  0  0  0  0  0  0  0  0  0  0  0
    0.7500   -1.2990    0.0000 C   0  0  0  0  0  0  0  0  0  0  0  0
    1.5000    0.0000    0.0000 C   0  0  0  0  0  0  0  0  0  0  0  0
    0.7500    1.2990    0.0000 C   0  0  0  0  0  0  0  0  0  0  0  0
   -0.7500    1.2990    0.0000 C   0  0  0  0  0  0  0  0  0  0  0  0
   -1.5000    0.0000    0.0000 C   0  0  0  0  0  0  0  0  0  0  0  0
   -0.7500   -1.2990    0.0000 C   0  0  0  0  0  0  0  0  0  0  0  0
   -1.2135   -2.7256    0.0000 C   0  0  0  0  0  0  0  0  0  0  0  0
    0.0000   -3.6073    0.0000 C   0  0  0  0  0  0  0  0  0  0  0  0
    0.0000   -5.1073    0.0000 O   0  0  0  0  0  0  0  0  0  0  0  0
  1  2  1  0
  2  3  1  0
  2  4  1  0
  2  5  1  0
  5  6  1  0
  6  7  2  0
  8  6  1  6
  8  9  1  0
  9 10  1  0
 10 11  1  0
 11 12  1  0
 12 13  2  0
 13 14  1  0
 14 15  2  0
 15 16  1  0
 16 17  2  0
 10 18  1  0
 18 19  1  0
 19 20  1  0
 20 21  1  0
 21 22  1  0
 22 23  1  1
 22 24  1  0
 25 24  1  1
 25 26  1  0
 26 27  1  0
 27 28  2  0
 28 29  1  0
 29 30  2  0
 30 31  1  0
 31 32  2  0
 25 33  1  0
 33 34  2  0
 33 35  1  0
 36 35  1  6
 36 37  1  0
 37 38  2  0
 38 39  1  0
 39 40  2  0
 40 41  1  0
 41 42  2  0
 42 43  1  0
 43 44  1  0
 44 45  1  6
 20  8  1  0
 32 27  1  0
 44 36  1  0
 17 12  1  0
 42 37  1  0
M  END
>  <assay_description>  (93) 
Inhibition of recombinant human BSEP expressed in baculovirus infected sf9 cell plasma membrane vesicles assessed as reduction in ATP-dependent [3H]-taurocholate uptake in to vesicles preincubated for 10 mins followed by ATP addition measured after 10 to 15 mins by TopCount method

>  <molecule_pref_name>  (93) 
INDINAVIR

>  <canonical_smiles>  (93) 
CC(C)(C)NC(=O)[C@@H]1CN(Cc2cccnc2)CCN1C[C@@H](O)C[C@@H](Cc1ccccc1)C(=O)N[C@H]1c2ccccc2C[C@H]1O

>  <pchembl_value>  (93) 
4.67

>  <standard_type>  (93) 
IC50

>  <standard_relation>  (93) 
=

>  <standard_value>  (93) 
21200.0

>  <standard_units>  (93) 
nM

>  <target_pref_name>  (93) 
Bile salt export pump

>  <target_organism>  (93) 
Homo sapiens

$$$$
CHEMBL554
     RDKit          2D

 40 44  0  0  0  0  0  0  0  0999 V2000
   -1.3632  -12.1594    0.0000 C   0  0  0  0  0  0  0  0  0  0  0  0
   -1.2064  -10.6676    0.0000 S   0  0  0  0  0  0  0  0  0  0  0  0
    0.2854  -10.8244    0.0000 O   0  0  0  0  0  0  0  0  0  0  0  0
   -2.6982  -10.5109    0.0000 O   0  0  0  0  0  0  0  0  0  0  0  0
   -1.0496   -9.1759    0.0000 C   0  0  0  0  0  0  0  0  0  0  0  0
    0.3207   -8.5658    0.0000 C   0  0  0  0  0  0  0  0  0  0  0  0
    0.4775   -7.0740    0.0000 N   0  0  0  0  0  0  0  0  0  0  0  0
    1.8478   -6.4639    0.0000 C   0  0  0  0  0  0  0  0  0  0  0  0
    2.0046   -4.9721    0.0000 C   0  0  0  0  0  0  0  0  0  0  0  0
    3.3037   -4.2221    0.0000 C   0  0  0  0  0  0  0  0  0  0  0  0
    2.9918   -2.7549    0.0000 C   0  0  0  0  0  0  0  0  0  0  0  0
    1.5000   -2.5981    0.0000 C   0  0  0  0  0  0  0  0  0  0  0  0
    0.7500   -1.2990    0.0000 C   0  0  0  0  0  0  0  0  0  0  0  0
    1.5000    0.0000    0.0000 C   0  0  0  0  0  0  0  0  0  0  0  0
    0.7500    1.2990    0.0000 C   0  0  0  0  0  0  0  0  0  0  0  0
   -0.7500    1.2990    0.0000 C   0  0  0  0  0  0  0  0  0  0  0  0
   -1.5000    2.5981    0.0000 N   0  0  0  0  0  0  0  0  0  0  0  0
   -3.0000    2.5981    0.0000 C   0  0  0  0  0  0  0  0  0  0  0  0
   -3.7500    1.2990    0.0000 N   0  0  0  0  0  0  0  0  0  0  0  0
   -3.0000    0.0000    0.0000 C   0  0  0  0  0  0  0  0  0  0  0  0
   -3.7500   -1.2990    0.0000 N   0  0  0  0  0  0  0  0  0  0  0  0
   -5.2500   -1.2990    0.0000 C   0  0  0  0  0  0  0  0  0  0  0  0
   -6.0000    0.0000    0.0000 C   0  0  0  0  0  0  0  0  0  0  0  0
   -7.5000    0.0000    0.0000 C   0  0  0  0  0  0  0  0  0  0  0  0
   -8.2500   -1.2990    0.0000 C   0  0  0  0  0  0  0  0  0  0  0  0
   -9.7500   -1.2990    0.0000 O   0  0  0  0  0  0  0  0  0  0  0  0
  -10.5000    0.0000    0.0000 C   0  0  0  0  0  0  0  0  0  0  0  0
  -12.0000    0.0000    0.0000 C   0  0  0  0  0  0  0  0  0  0  0  0
  -12.7500    1.2990    0.0000 C   0  0  0  0  0  0  0  0  0  0  0  0
  -14.2500    1.2990    0.0000 C   0  0  0  0  0  0  0  0  0  0  0  0
  -15.0000    0.0000    0.0000 C   0  0  0  0  0  0  0  0  0  0  0  0
  -14.2500   -1.2990    0.0000 C   0  0  0  0  0  0  0  0  0  0  0  0
  -15.0000   -2.5981    0.0000 F   0  0  0  0  0  0  0  0  0  0  0  0
  -12.7500   -1.2990    0.0000 C   0  0  0  0  0  0  0  0  0  0  0  0
   -7.5000   -2.5981    0.0000 C   0  0  0  0  0  0  0  0  0  0  0  0
   -8.2500   -3.8971    0.0000 Cl  0  0  0  0  0  0  0  0  0  0  0  0
   -6.0000   -2.5981    0.0000 C   0  0  0  0  0  0  0  0  0  0  0  0
   -1.5000    0.0000    0.0000 C   0  0  0  0  0  0  0  0  0  0  0  0
   -0.7500   -1.2990    0.0000 C   0  0  0  0  0  0  0  0  0  0  0  0
    0.8899   -3.9684    0.0000 O   0  0  0  0  0  0  0  0  0  0  0  0
  1  2  1  0
  2  3  2  0
  2  4  2  0
  2  5  1  0
  5  6  1  0
  6  7  1  0
  7  8  1  0
  8  9  1  0
  9 10  2  0
 10 11  1  0
 11 12  2  0
 12 13  1  0
 13 14  2  0
 14 15  1  0
 15 16  2  0
 16 17  1  0
 17 18  2  0
 18 19  1  0
 19 20  2  0
 20 21  1  0
 21 22  1  0
 22 23  2  0
 23 24  1  0
 24 25  2  0
 25 26  1  0
 26 27  1  0
 27 28  1  0
 28 29  2  0
 29 30  1  0
 30 31  2  0
 31 32  1  0
 32 33  1  0
 32 34  2  0
 25 35  1  0
 35 36  1  0
 35 37  2  0
 20 38  1  0
 38 39  2  0
 12 40  1  0
 40  9  1  0
 39 13  1  0
 38 16  1  0
 37 22  1  0
 34 28  1  0
M  END
>  <assay_description>  (94) 
Inhibition of recombinant human BSEP expressed in baculovirus infected sf9 cell plasma membrane vesicles assessed as reduction in ATP-dependent [3H]-taurocholate uptake in to vesicles preincubated for 10 mins followed by ATP addition measured after 10 to 15 mins by TopCount method

>  <molecule_pref_name>  (94) 
LAPATINIB

>  <canonical_smiles>  (94) 
CS(=O)(=O)CCNCc1ccc(-c2ccc3ncnc(Nc4ccc(OCc5cccc(F)c5)c(Cl)c4)c3c2)o1

>  <pchembl_value>  (94) 
5.19

>  <standard_type>  (94) 
IC50

>  <standard_relation>  (94) 
=

>  <standard_value>  (94) 
6500.0

>  <standard_units>  (94) 
nM

>  <target_pref_name>  (94) 
Bile salt export pump

>  <target_organism>  (94) 
Homo sapiens

$$$$
CHEMBL428647
     RDKit          2D

 62 68  0  0  0  0  0  0  0  0999 V2000
   -6.8980   -5.9648    0.0000 C   0  0  0  0  0  0  0  0  0  0  0  0
   -5.9848   -4.7747    0.0000 C   0  0  0  0  0  0  0  0  0  0  0  0
   -4.4977   -4.9705    0.0000 O   0  0  0  0  0  0  0  0  0  0  0  0
   -6.5588   -3.3889    0.0000 O   0  0  0  0  0  0  0  0  0  0  0  0
   -5.6457   -2.1989    0.0000 C   0  0  0  0  0  0  0  0  0  0  0  0
   -4.1968   -2.5871    0.0000 C   0  0  0  0  0  0  0  0  0  0  0  0
   -4.0010   -4.0743    0.0000 O   0  0  0  0  0  0  0  0  0  0  0  0
   -2.8978   -1.8371    0.0000 C   0  0  0  0  0  0  0  0  0  0  0  0
   -3.0936   -3.3243    0.0000 C   0  0  0  0  0  0  0  0  0  0  0  0
   -1.8371   -2.8978    0.0000 C   0  0  0  0  0  0  0  0  0  0  0  0
   -2.2253   -4.3467    0.0000 O   0  0  0  0  0  0  0  0  0  0  0  0
   -0.3882   -2.5095    0.0000 C   0  0  0  0  0  0  0  0  0  0  0  0
   -0.0000   -1.0607    0.0000 C   0  0  0  0  0  0  0  0  0  0  0  0
    1.0607    0.0000    0.0000 O   0  0  0  0  0  0  0  0  0  0  0  0
    0.0000    1.0607    0.0000 C   0  0  0  0  0  0  0  0  0  0  0  0
   -1.0607    0.0000    0.0000 C   0  0  0  0  0  0  0  0  0  0  0  0
   -1.8107    1.2990    0.0000 O   0  0  0  0  0  0  0  0  0  0  0  0
   -1.0607    2.5981    0.0000 C   0  0  0  0  0  0  0  0  0  0  0  0
   -1.8107    3.8971    0.0000 C   0  0  0  0  0  0  0  0  0  0  0  0
    0.4393    2.5981    0.0000 O   0  0  0  0  0  0  0  0  0  0  0  0
   -2.5095   -0.3882    0.0000 C   0  0  0  0  0  0  0  0  0  0  0  0
   -3.2595    0.9108    0.0000 C   0  0  0  0  0  0  0  0  0  0  0  0
   -2.3464    2.1008    0.0000 O   0  0  0  0  0  0  0  0  0  0  0  0
   -2.9204    3.4867    0.0000 C   0  0  0  0  0  0  0  0  0  0  0  0
   -4.4076    3.6824    0.0000 O   0  0  0  0  0  0  0  0  0  0  0  0
   -2.0073    4.6767    0.0000 C   0  0  0  0  0  0  0  0  0  0  0  0
   -0.5201    4.4809    0.0000 C   0  0  0  0  0  0  0  0  0  0  0  0
    0.3930    5.6709    0.0000 C   0  0  0  0  0  0  0  0  0  0  0  0
   -0.1810    7.0567    0.0000 C   0  0  0  0  0  0  0  0  0  0  0  0
   -1.6682    7.2525    0.0000 C   0  0  0  0  0  0  0  0  0  0  0  0
   -2.5813    6.0625    0.0000 C   0  0  0  0  0  0  0  0  0  0  0  0
   -4.7084    1.2990    0.0000 C   0  0  0  0  0  0  0  0  0  0  0  0
   -4.9042    2.7862    0.0000 O   0  0  0  0  0  0  0  0  0  0  0  0
   -6.0041    2.0745    0.0000 C   0  0  0  0  0  0  0  0  0  0  0  0
   -7.3899    1.5005    0.0000 C   0  0  0  0  0  0  0  0  0  0  0  0
   -8.5800    2.4136    0.0000 O   0  0  0  0  0  0  0  0  0  0  0  0
   -8.3842    3.9008    0.0000 C   0  0  0  0  0  0  0  0  0  0  0  0
   -6.9984    4.4748    0.0000 O   0  0  0  0  0  0  0  0  0  0  0  0
   -9.5742    4.8139    0.0000 C   0  0  0  0  0  0  0  0  0  0  0  0
  -10.9600    4.2399    0.0000 O   0  0  0  0  0  0  0  0  0  0  0  0
   -9.3784    6.3011    0.0000 C   0  0  0  0  0  0  0  0  0  0  0  0
   -7.9926    6.8751    0.0000 N   0  0  0  0  0  0  0  0  0  0  0  0
   -7.7968    8.3623    0.0000 C   0  0  0  0  0  0  0  0  0  0  0  0
   -8.9868    9.2754    0.0000 O   0  0  0  0  0  0  0  0  0  0  0  0
   -6.4110    8.9363    0.0000 C   0  0  0  0  0  0  0  0  0  0  0  0
   -5.2210    8.0232    0.0000 C   0  0  0  0  0  0  0  0  0  0  0  0
   -3.8351    8.5972    0.0000 C   0  0  0  0  0  0  0  0  0  0  0  0
   -3.6394   10.0843    0.0000 C   0  0  0  0  0  0  0  0  0  0  0  0
   -4.8294   10.9975    0.0000 C   0  0  0  0  0  0  0  0  0  0  0  0
   -6.2152   10.4235    0.0000 C   0  0  0  0  0  0  0  0  0  0  0  0
  -10.5685    7.2142    0.0000 C   0  0  0  0  0  0  0  0  0  0  0  0
  -10.3727    8.7014    0.0000 C   0  0  0  0  0  0  0  0  0  0  0  0
  -11.5627    9.6145    0.0000 C   0  0  0  0  0  0  0  0  0  0  0  0
  -12.9485    9.0405    0.0000 C   0  0  0  0  0  0  0  0  0  0  0  0
  -13.1443    7.5533    0.0000 C   0  0  0  0  0  0  0  0  0  0  0  0
  -11.9543    6.6402    0.0000 C   0  0  0  0  0  0  0  0  0  0  0  0
   -7.5857    0.0133    0.0000 C   0  0  0  0  0  0  0  0  0  0  0  0
   -8.9716   -0.5607    0.0000 C   0  0  0  0  0  0  0  0  0  0  0  0
   -6.3957   -0.8999    0.0000 C   0  0  0  0  0  0  0  0  0  0  0  0
   -6.0075    0.5490    0.0000 C   0  0  0  0  0  0  0  0  0  0  0  0
   -6.7348    1.8609    0.0000 C   0  0  0  0  0  0  0  0  0  0  0  0
   -7.0685    0.8136    0.0000 C   0  0  0  0  0  0  0  0  0  0  0  0
  1  2  1  0
  2  3  2  0
  2  4  1  0
  5  4  1  6
  5  6  1  0
  6  7  2  0
  6  8  1  0
  8  9  1  6
  8 10  1  0
 10 11  1  6
 10 12  1  0
 13 12  1  6
 13 14  1  0
 14 15  1  0
 15 16  1  0
 16 17  1  1
 17 18  1  0
 18 19  1  0
 18 20  2  0
 16 21  1  0
 21 22  1  6
 22 23  1  1
 23 24  1  0
 24 25  2  0
 24 26  1  0
 26 27  2  0
 27 28  1  0
 28 29  2  0
 29 30  1  0
 30 31  2  0
 22 32  1  0
 32 33  1  6
 32 34  1  0
 34 35  1  0
 35 36  1  1
 36 37  1  0
 37 38  2  0
 37 39  1  0
 39 40  1  6
 39 41  1  0
 41 42  1  6
 42 43  1  0
 43 44  2  0
 43 45  1  0
 45 46  2  0
 46 47  1  0
 47 48  2  0
 48 49  1  0
 49 50  2  0
 41 51  1  0
 51 52  2  0
 52 53  1  0
 53 54  2  0
 54 55  1  0
 55 56  2  0
 35 57  1  0
 57 58  1  0
 57 59  2  0
 59 60  1  0
 60 61  1  0
 60 62  1  0
 59  5  1  0
 21  8  1  0
 31 26  1  0
 60 32  1  0
 16 13  1  0
 50 45  1  0
 56 51  1  0
M  END
>  <assay_description>  (95) 
Inhibition of recombinant human BSEP expressed in baculovirus infected sf9 cell plasma membrane vesicles assessed as reduction in ATP-dependent [3H]-taurocholate uptake in to vesicles preincubated for 10 mins followed by ATP addition measured after 10 to 15 mins by TopCount method

>  <molecule_pref_name>  (95) 
PACLITAXEL

>  <canonical_smiles>  (95) 
CC(=O)O[C@H]1C(=O)[C@]2(C)[C@@H](O)C[C@H]3OC[C@@]3(OC(C)=O)[C@H]2[C@H](OC(=O)c2ccccc2)[C@]2(O)C[C@H](OC(=O)[C@H](O)[C@@H](NC(=O)c3ccccc3)c3ccccc3)C(C)=C1C2(C)C

>  <pchembl_value>  (95) 
4.82

>  <standard_type>  (95) 
IC50

>  <standard_relation>  (95) 
=

>  <standard_value>  (95) 
15000.0

>  <standard_units>  (95) 
nM

>  <target_pref_name>  (95) 
Bile salt export pump

>  <target_organism>  (95) 
Homo sapiens

$$$$
CHEMBL163
     RDKit          2D

 50 53  0  0  0  0  0  0  0  0999 V2000
   -9.3308    3.7259    0.0000 C   0  0  0  0  0  0  0  0  0  0  0  0
   -9.1740    2.2341    0.0000 C   0  0  0  0  0  0  0  0  0  0  0  0
  -10.3875    1.3524    0.0000 C   0  0  0  0  0  0  0  0  0  0  0  0
   -7.8037    1.6240    0.0000 C   0  0  0  0  0  0  0  0  0  0  0  0
   -7.4918    0.1568    0.0000 N   0  0  0  0  0  0  0  0  0  0  0  0
   -6.0000    0.0000    0.0000 C   0  0  0  0  0  0  0  0  0  0  0  0
   -5.2500   -1.2990    0.0000 C   0  0  0  0  0  0  0  0  0  0  0  0
   -6.0000   -2.5981    0.0000 N   0  0  0  0  0  0  0  0  0  0  0  0
   -7.5000   -2.5981    0.0000 C   0  0  0  0  0  0  0  0  0  0  0  0
   -5.2500   -3.8971    0.0000 C   0  0  0  0  0  0  0  0  0  0  0  0
   -6.0000   -5.1962    0.0000 O   0  0  0  0  0  0  0  0  0  0  0  0
   -3.7500   -3.8971    0.0000 N   0  0  0  0  0  0  0  0  0  0  0  0
   -3.0000   -5.1962    0.0000 C   0  0  0  0  0  0  0  0  0  0  0  0
   -1.5000   -5.1962    0.0000 C   0  0  0  0  0  0  0  0  0  0  0  0
   -0.7500   -6.4952    0.0000 O   0  0  0  0  0  0  0  0  0  0  0  0
   -0.7500   -3.8971    0.0000 N   0  0  0  0  0  0  0  0  0  0  0  0
    0.7500   -3.8971    0.0000 C   0  0  0  0  0  0  0  0  0  0  0  0
    1.5000   -2.5981    0.0000 C   0  0  0  0  0  0  0  0  0  0  0  0
    0.7500   -1.2990    0.0000 C   0  0  0  0  0  0  0  0  0  0  0  0
    1.5000    0.0000    0.0000 C   0  0  0  0  0  0  0  0  0  0  0  0
    0.7500    1.2990    0.0000 C   0  0  0  0  0  0  0  0  0  0  0  0
   -0.7500    1.2990    0.0000 C   0  0  0  0  0  0  0  0  0  0  0  0
   -1.5000    0.0000    0.0000 C   0  0  0  0  0  0  0  0  0  0  0  0
   -0.7500   -1.2990    0.0000 C   0  0  0  0  0  0  0  0  0  0  0  0
    1.5000   -5.1962    0.0000 C   0  0  0  0  0  0  0  0  0  0  0  0
    3.0000   -5.1962    0.0000 C   0  0  0  0  0  0  0  0  0  0  0  0
    3.7500   -3.8971    0.0000 O   0  0  0  0  0  0  0  0  0  0  0  0
    3.7500   -6.4952    0.0000 C   0  0  0  0  0  0  0  0  0  0  0  0
    5.2500   -6.4952    0.0000 C   0  0  0  0  0  0  0  0  0  0  0  0
    6.0000   -7.7942    0.0000 C   0  0  0  0  0  0  0  0  0  0  0  0
    7.5000   -7.7942    0.0000 C   0  0  0  0  0  0  0  0  0  0  0  0
    8.2500   -9.0933    0.0000 C   0  0  0  0  0  0  0  0  0  0  0  0
    7.5000  -10.3923    0.0000 C   0  0  0  0  0  0  0  0  0  0  0  0
    6.0000  -10.3923    0.0000 C   0  0  0  0  0  0  0  0  0  0  0  0
    5.2500   -9.0933    0.0000 C   0  0  0  0  0  0  0  0  0  0  0  0
    3.0000   -7.7942    0.0000 N   0  0  0  0  0  0  0  0  0  0  0  0
    1.5000   -7.7942    0.0000 C   0  0  0  0  0  0  0  0  0  0  0  0
    0.7500   -6.4952    0.0000 O   0  0  0  0  0  0  0  0  0  0  0  0
    0.7500   -9.0933    0.0000 O   0  0  0  0  0  0  0  0  0  0  0  0
   -0.7500   -9.0933    0.0000 C   0  0  0  0  0  0  0  0  0  0  0  0
   -1.5000  -10.3923    0.0000 C   0  0  0  0  0  0  0  0  0  0  0  0
   -0.8899  -11.7626    0.0000 C   0  0  0  0  0  0  0  0  0  0  0  0
   -2.0046  -12.7663    0.0000 N   0  0  0  0  0  0  0  0  0  0  0  0
   -3.3037  -12.0163    0.0000 C   0  0  0  0  0  0  0  0  0  0  0  0
   -2.9918  -10.5491    0.0000 S   0  0  0  0  0  0  0  0  0  0  0  0
   -3.7500   -6.4952    0.0000 C   0  0  0  0  0  0  0  0  0  0  0  0
   -5.2500   -6.4952    0.0000 C   0  0  0  0  0  0  0  0  0  0  0  0
   -3.0000   -7.7942    0.0000 C   0  0  0  0  0  0  0  0  0  0  0  0
   -5.3899    1.3703    0.0000 C   0  0  0  0  0  0  0  0  0  0  0  0
   -6.5046    2.3740    0.0000 S   0  0  0  0  0  0  0  0  0  0  0  0
  1  2  1  0
  2  3  1  0
  2  4  1  0
  4  5  2  0
  5  6  1  0
  6  7  1  0
  7  8  1  0
  8  9  1  0
  8 10  1  0
 10 11  2  0
 10 12  1  0
 13 12  1  6
 13 14  1  0
 14 15  2  0
 14 16  1  0
 16 17  1  0
 17 18  1  1
 18 19  1  0
 19 20  2  0
 20 21  1  0
 21 22  2  0
 22 23  1  0
 23 24  2  0
 17 25  1  0
 25 26  1  0
 26 27  1  6
 26 28  1  0
 28 29  1  6
 29 30  1  0
 30 31  2  0
 31 32  1  0
 32 33  2  0
 33 34  1  0
 34 35  2  0
 28 36  1  0
 36 37  1  0
 37 38  2  0
 37 39  1  0
 39 40  1  0
 40 41  1  0
 41 42  2  0
 42 43  1  0
 43 44  2  0
 44 45  1  0
 13 46  1  0
 46 47  1  0
 46 48  1  0
  6 49  2  0
 49 50  1  0
 50  4  1  0
 24 19  1  0
 35 30  1  0
 45 41  1  0
M  END
>  <assay_description>  (96) 
Inhibition of recombinant human BSEP expressed in baculovirus infected sf9 cell plasma membrane vesicles assessed as reduction in ATP-dependent [3H]-taurocholate uptake in to vesicles preincubated for 10 mins followed by ATP addition measured after 10 to 15 mins by TopCount method

>  <molecule_pref_name>  (96) 
RITONAVIR

>  <canonical_smiles>  (96) 
CC(C)c1nc(CN(C)C(=O)N[C@H](C(=O)N[C@@H](Cc2ccccc2)C[C@H](O)[C@H](Cc2ccccc2)NC(=O)OCc2cncs2)C(C)C)cs1

>  <pchembl_value>  (96) 
5.66

>  <standard_type>  (96) 
IC50

>  <standard_relation>  (96) 
=

>  <standard_value>  (96) 
2200.0

>  <standard_units>  (96) 
nM

>  <target_pref_name>  (96) 
Bile salt export pump

>  <target_organism>  (96) 
Homo sapiens

$$$$
CHEMBL121
     RDKit          2D

 25 27  0  0  0  0  0  0  0  0999 V2000
    1.5000   -7.7942    0.0000 C   0  0  0  0  0  0  0  0  0  0  0  0
    0.7500   -6.4952    0.0000 N   0  0  0  0  0  0  0  0  0  0  0  0
    1.5000   -5.1962    0.0000 C   0  0  0  0  0  0  0  0  0  0  0  0
    0.7500   -3.8971    0.0000 C   0  0  0  0  0  0  0  0  0  0  0  0
    1.5000   -2.5981    0.0000 O   0  0  0  0  0  0  0  0  0  0  0  0
    0.7500   -1.2990    0.0000 C   0  0  0  0  0  0  0  0  0  0  0  0
    1.5000    0.0000    0.0000 C   0  0  0  0  0  0  0  0  0  0  0  0
    0.7500    1.2990    0.0000 C   0  0  0  0  0  0  0  0  0  0  0  0
   -0.7500    1.2990    0.0000 C   0  0  0  0  0  0  0  0  0  0  0  0
   -1.5000    2.5981    0.0000 C   0  0  0  0  0  0  0  0  0  0  0  0
   -0.7500    3.8971    0.0000 C   0  0  0  0  0  0  0  0  0  0  0  0
   -1.3601    5.2674    0.0000 S   0  0  0  0  0  0  0  0  0  0  0  0
   -0.2454    6.2711    0.0000 C   0  0  0  0  0  0  0  0  0  0  0  0
   -0.4022    7.7629    0.0000 O   0  0  0  0  0  0  0  0  0  0  0  0
    1.0537    5.5211    0.0000 N   0  0  0  0  0  0  0  0  0  0  0  0
    0.7418    4.0539    0.0000 C   0  0  0  0  0  0  0  0  0  0  0  0
    1.7455    2.9392    0.0000 O   0  0  0  0  0  0  0  0  0  0  0  0
   -1.5000    0.0000    0.0000 C   0  0  0  0  0  0  0  0  0  0  0  0
   -0.7500   -1.2990    0.0000 C   0  0  0  0  0  0  0  0  0  0  0  0
   -0.7500   -6.4952    0.0000 C   0  0  0  0  0  0  0  0  0  0  0  0
   -1.5000   -5.1962    0.0000 C   0  0  0  0  0  0  0  0  0  0  0  0
   -3.0000   -5.1962    0.0000 C   0  0  0  0  0  0  0  0  0  0  0  0
   -3.7500   -6.4952    0.0000 C   0  0  0  0  0  0  0  0  0  0  0  0
   -3.0000   -7.7942    0.0000 C   0  0  0  0  0  0  0  0  0  0  0  0
   -1.5000   -7.7942    0.0000 N   0  0  0  0  0  0  0  0  0  0  0  0
  1  2  1  0
  2  3  1  0
  3  4  1  0
  4  5  1  0
  5  6  1  0
  6  7  2  0
  7  8  1  0
  8  9  2  0
  9 10  1  0
 10 11  1  0
 11 12  1  0
 12 13  1  0
 13 14  2  0
 13 15  1  0
 15 16  1  0
 16 17  2  0
  9 18  1  0
 18 19  2  0
  2 20  1  0
 20 21  2  0
 21 22  1  0
 22 23  2  0
 23 24  1  0
 24 25  2  0
 19  6  1  0
 25 20  1  0
 16 11  1  0
M  END
>  <assay_description>  (97) 
Inhibition of recombinant human BSEP expressed in baculovirus infected sf9 cell plasma membrane vesicles assessed as reduction in ATP-dependent [3H]-taurocholate uptake in to vesicles preincubated for 10 mins followed by ATP addition measured after 10 to 15 mins by TopCount method

>  <molecule_pref_name>  (97) 
ROSIGLITAZONE

>  <canonical_smiles>  (97) 
CN(CCOc1ccc(CC2SC(=O)NC2=O)cc1)c1ccccn1

>  <pchembl_value>  (97) 
5.43

>  <standard_type>  (97) 
IC50

>  <standard_relation>  (97) 
=

>  <standard_value>  (97) 
3750.0

>  <standard_units>  (97) 
nM

>  <target_pref_name>  (97) 
Bile salt export pump

>  <target_organism>  (97) 
Homo sapiens

$$$$
CHEMBL1336
     RDKit          2D

 32 34  0  0  0  0  0  0  0  0999 V2000
    5.2500   -1.2990    0.0000 C   0  0  0  0  0  0  0  0  0  0  0  0
    3.7500   -1.2990    0.0000 N   0  0  0  0  0  0  0  0  0  0  0  0
    3.0000    0.0000    0.0000 C   0  0  0  0  0  0  0  0  0  0  0  0
    3.7500    1.2990    0.0000 O   0  0  0  0  0  0  0  0  0  0  0  0
    1.5000    0.0000    0.0000 C   0  0  0  0  0  0  0  0  0  0  0  0
    0.7500   -1.2990    0.0000 C   0  0  0  0  0  0  0  0  0  0  0  0
   -0.7500   -1.2990    0.0000 C   0  0  0  0  0  0  0  0  0  0  0  0
   -1.5000   -2.5981    0.0000 O   0  0  0  0  0  0  0  0  0  0  0  0
   -3.0000   -2.5981    0.0000 C   0  0  0  0  0  0  0  0  0  0  0  0
   -3.7500   -1.2990    0.0000 C   0  0  0  0  0  0  0  0  0  0  0  0
   -5.2500   -1.2990    0.0000 C   0  0  0  0  0  0  0  0  0  0  0  0
   -6.0000   -2.5981    0.0000 C   0  0  0  0  0  0  0  0  0  0  0  0
   -7.5000   -2.5981    0.0000 N   0  0  0  0  0  0  0  0  0  0  0  0
   -8.2500   -1.2990    0.0000 C   0  0  0  0  0  0  0  0  0  0  0  0
   -7.5000    0.0000    0.0000 O   0  0  0  0  0  0  0  0  0  0  0  0
   -9.7500   -1.2990    0.0000 N   0  0  0  0  0  0  0  0  0  0  0  0
  -10.5000    0.0000    0.0000 C   0  0  0  0  0  0  0  0  0  0  0  0
   -9.7500    1.2990    0.0000 C   0  0  0  0  0  0  0  0  0  0  0  0
  -10.5000    2.5981    0.0000 C   0  0  0  0  0  0  0  0  0  0  0  0
  -12.0000    2.5981    0.0000 C   0  0  0  0  0  0  0  0  0  0  0  0
  -12.7500    3.8971    0.0000 Cl  0  0  0  0  0  0  0  0  0  0  0  0
  -12.7500    1.2990    0.0000 C   0  0  0  0  0  0  0  0  0  0  0  0
  -14.2500    1.2990    0.0000 C   0  0  0  0  0  0  0  0  0  0  0  0
  -15.7500    1.2990    0.0000 F   0  0  0  0  0  0  0  0  0  0  0  0
  -14.2500   -0.2010    0.0000 F   0  0  0  0  0  0  0  0  0  0  0  0
  -14.2500    2.7990    0.0000 F   0  0  0  0  0  0  0  0  0  0  0  0
  -12.0000    0.0000    0.0000 C   0  0  0  0  0  0  0  0  0  0  0  0
   -5.2500   -3.8971    0.0000 C   0  0  0  0  0  0  0  0  0  0  0  0
   -3.7500   -3.8971    0.0000 C   0  0  0  0  0  0  0  0  0  0  0  0
   -1.5000    0.0000    0.0000 C   0  0  0  0  0  0  0  0  0  0  0  0
   -0.7500    1.2990    0.0000 C   0  0  0  0  0  0  0  0  0  0  0  0
    0.7500    1.2990    0.0000 N   0  0  0  0  0  0  0  0  0  0  0  0
  1  2  1  0
  2  3  1  0
  3  4  2  0
  3  5  1  0
  5  6  2  0
  6  7  1  0
  7  8  1  0
  8  9  1  0
  9 10  2  0
 10 11  1  0
 11 12  2  0
 12 13  1  0
 13 14  1  0
 14 15  2  0
 14 16  1  0
 16 17  1  0
 17 18  2  0
 18 19  1  0
 19 20  2  0
 20 21  1  0
 20 22  1  0
 22 23  1  0
 23 24  1  0
 23 25  1  0
 23 26  1  0
 22 27  2  0
 12 28  1  0
 28 29  2  0
  7 30  2  0
 30 31  1  0
 31 32  2  0
 32  5  1  0
 29  9  1  0
 27 17  1  0
M  END
>  <assay_description>  (98) 
Inhibition of recombinant human BSEP expressed in baculovirus infected sf9 cell plasma membrane vesicles assessed as reduction in ATP-dependent [3H]-taurocholate uptake in to vesicles preincubated for 10 mins followed by ATP addition measured after 10 to 15 mins by TopCount method

>  <molecule_pref_name>  (98) 
SORAFENIB

>  <canonical_smiles>  (98) 
CNC(=O)c1cc(Oc2ccc(NC(=O)Nc3ccc(Cl)c(C(F)(F)F)c3)cc2)ccn1

>  <pchembl_value>  (98) 
5.10

>  <standard_type>  (98) 
IC50

>  <standard_relation>  (98) 
=

>  <standard_value>  (98) 
8000.0

>  <standard_units>  (98) 
nM

>  <target_pref_name>  (98) 
Bile salt export pump

>  <target_organism>  (98) 
Homo sapiens

$$$$
CHEMBL408
     RDKit          2D

 31 34  0  0  0  0  0  0  0  0999 V2000
   -1.5000   -5.1962    0.0000 C   0  0  0  0  0  0  0  0  0  0  0  0
   -0.7500   -3.8971    0.0000 C   0  0  0  0  0  0  0  0  0  0  0  0
   -1.5000   -2.5981    0.0000 C   0  0  0  0  0  0  0  0  0  0  0  0
   -3.0000   -2.5981    0.0000 C   0  0  0  0  0  0  0  0  0  0  0  0
   -0.7500   -1.2990    0.0000 C   0  0  0  0  0  0  0  0  0  0  0  0
    0.7500   -1.2990    0.0000 C   0  0  0  0  0  0  0  0  0  0  0  0
    1.5000   -2.5981    0.0000 C   0  0  0  0  0  0  0  0  0  0  0  0
    3.0000   -2.5981    0.0000 C   0  0  0  0  0  0  0  0  0  0  0  0
    0.7500   -3.8971    0.0000 C   0  0  0  0  0  0  0  0  0  0  0  0
    1.5000   -5.1962    0.0000 O   0  0  0  0  0  0  0  0  0  0  0  0
    1.5000    0.0000    0.0000 C   0  0  0  0  0  0  0  0  0  0  0  0
    0.7500    1.2990    0.0000 C   0  0  0  0  0  0  0  0  0  0  0  0
   -0.7500    1.2990    0.0000 C   0  0  0  0  0  0  0  0  0  0  0  0
   -2.1595    1.8121    0.0000 C   0  0  0  0  0  0  0  0  0  0  0  0
   -0.4895    2.7762    0.0000 C   0  0  0  0  0  0  0  0  0  0  0  0
    0.9200    3.2893    0.0000 O   0  0  0  0  0  0  0  0  0  0  0  0
    1.1805    4.7665    0.0000 C   0  0  0  0  0  0  0  0  0  0  0  0
    2.5900    5.2795    0.0000 C   0  0  0  0  0  0  0  0  0  0  0  0
    2.8505    6.7567    0.0000 C   0  0  0  0  0  0  0  0  0  0  0  0
    1.7014    7.7209    0.0000 C   0  0  0  0  0  0  0  0  0  0  0  0
    1.9619    9.1981    0.0000 C   0  0  0  0  0  0  0  0  0  0  0  0
    3.3714    9.7112    0.0000 C   0  0  0  0  0  0  0  0  0  0  0  0
    3.7849   11.1530    0.0000 S   0  0  0  0  0  0  0  0  0  0  0  0
    5.2840   11.2054    0.0000 C   0  0  0  0  0  0  0  0  0  0  0  0
    6.1228   12.4490    0.0000 O   0  0  0  0  0  0  0  0  0  0  0  0
    5.7970    9.7959    0.0000 N   0  0  0  0  0  0  0  0  0  0  0  0
    4.6150    8.8724    0.0000 C   0  0  0  0  0  0  0  0  0  0  0  0
    4.6673    7.3733    0.0000 O   0  0  0  0  0  0  0  0  0  0  0  0
    0.2919    7.2079    0.0000 C   0  0  0  0  0  0  0  0  0  0  0  0
    0.0314    5.7307    0.0000 C   0  0  0  0  0  0  0  0  0  0  0  0
   -1.5000    0.0000    0.0000 O   0  0  0  0  0  0  0  0  0  0  0  0
  1  2  1  0
  2  3  2  0
  3  4  1  0
  3  5  1  0
  5  6  2  0
  6  7  1  0
  7  8  1  0
  7  9  2  0
  9 10  1  0
  6 11  1  0
 11 12  1  0
 12 13  1  0
 13 14  1  0
 13 15  1  0
 15 16  1  0
 16 17  1  0
 17 18  2  0
 18 19  1  0
 19 20  2  0
 20 21  1  0
 21 22  1  0
 22 23  1  0
 23 24  1  0
 24 25  2  0
 24 26  1  0
 26 27  1  0
 27 28  2  0
 20 29  1  0
 29 30  2  0
 13 31  1  0
  9  2  1  0
 30 17  1  0
 31  5  1  0
 27 22  1  0
M  END
>  <assay_description>  (99) 
Inhibition of recombinant human BSEP expressed in baculovirus infected sf9 cell plasma membrane vesicles assessed as reduction in ATP-dependent [3H]-taurocholate uptake in to vesicles preincubated for 10 mins followed by ATP addition measured after 10 to 15 mins by TopCount method

>  <molecule_pref_name>  (99) 
TROGLITAZONE

>  <canonical_smiles>  (99) 
Cc1c(C)c2c(c(C)c1O)CCC(C)(COc1ccc(CC3SC(=O)NC3=O)cc1)O2

>  <pchembl_value>  (99) 
5.23

>  <standard_type>  (99) 
IC50

>  <standard_relation>  (99) 
=

>  <standard_value>  (99) 
5900.0

>  <standard_units>  (99) 
nM

>  <target_pref_name>  (99) 
Bile salt export pump

>  <target_organism>  (99) 
Homo sapiens

$$$$
CHEMBL547
     RDKit          2D

 22 22  0  0  0  0  0  0  0  0999 V2000
    3.0000    0.0000    0.0000 C   0  0  0  0  0  0  0  0  0  0  0  0
    1.5000    0.0000    0.0000 C   0  0  0  0  0  0  0  0  0  0  0  0
    0.7500   -1.2990    0.0000 C   0  0  0  0  0  0  0  0  0  0  0  0
    1.5000   -2.5981    0.0000 C   0  0  0  0  0  0  0  0  0  0  0  0
    3.0000   -2.5981    0.0000 C   0  0  0  0  0  0  0  0  0  0  0  0
    3.7500   -3.8971    0.0000 C   0  0  0  0  0  0  0  0  0  0  0  0
    3.0000   -5.1962    0.0000 C   0  0  0  0  0  0  0  0  0  0  0  0
    5.2500   -3.8971    0.0000 C   0  0  0  0  0  0  0  0  0  0  0  0
    6.0000   -5.1962    0.0000 C   0  0  0  0  0  0  0  0  0  0  0  0
    7.5000   -5.1962    0.0000 C   0  0  0  0  0  0  0  0  0  0  0  0
    8.2500   -6.4952    0.0000 C   0  0  0  0  0  0  0  0  0  0  0  0
    7.5000   -7.7942    0.0000 C   0  0  0  0  0  0  0  0  0  0  0  0
    9.7500   -6.4952    0.0000 C   0  0  0  0  0  0  0  0  0  0  0  0
   10.5000   -5.1962    0.0000 C   0  0  0  0  0  0  0  0  0  0  0  0
    9.7500   -3.8971    0.0000 O   0  0  0  0  0  0  0  0  0  0  0  0
   12.0000   -5.1962    0.0000 O   0  0  0  0  0  0  0  0  0  0  0  0
   -0.7500   -1.2990    0.0000 C   0  0  0  0  0  0  0  0  0  0  0  0
   -0.4895   -2.7762    0.0000 C   0  0  0  0  0  0  0  0  0  0  0  0
   -2.1595   -1.8121    0.0000 C   0  0  0  0  0  0  0  0  0  0  0  0
   -1.5000    0.0000    0.0000 C   0  0  0  0  0  0  0  0  0  0  0  0
   -0.7500    1.2990    0.0000 C   0  0  0  0  0  0  0  0  0  0  0  0
    0.7500    1.2990    0.0000 C   0  0  0  0  0  0  0  0  0  0  0  0
  1  2  1  0
  2  3  2  0
  3  4  1  0
  4  5  2  0
  5  6  1  0
  6  7  1  0
  6  8  2  0
  8  9  1  0
  9 10  2  0
 10 11  1  0
 11 12  1  0
 11 13  2  0
 13 14  1  0
 14 15  2  0
 14 16  1  0
  3 17  1  0
 17 18  1  0
 17 19  1  0
 17 20  1  0
 20 21  1  0
 21 22  1  0
 22  2  1  0
M  END
>  <assay_description>  (100) 
Inhibition of recombinant human BSEP expressed in baculovirus infected sf9 cell plasma membrane vesicles assessed as reduction in ATP-dependent [3H]-taurocholate uptake in to vesicles after 15 to 20 mins

>  <molecule_pref_name>  (100) 
ISOTRETINOIN

>  <canonical_smiles>  (100) 
CC1=C(/C=C/C(C)=C/C=C/C(C)=C\C(=O)O)C(C)(C)CCC1

>  <pchembl_value>  (100) 
4.43

>  <standard_type>  (100) 
IC50

>  <standard_relation>  (100) 
=

>  <standard_value>  (100) 
37100.0

>  <standard_units>  (100) 
nM

>  <target_pref_name>  (100) 
Bile salt export pump

>  <target_organism>  (100) 
Homo sapiens

$$$$
CHEMBL116
     RDKit          2D

 35 37  0  0  0  0  0  0  0  0999 V2000
    0.7500  -11.6913    0.0000 C   0  0  0  0  0  0  0  0  0  0  0  0
    1.5000  -10.3923    0.0000 C   0  0  0  0  0  0  0  0  0  0  0  0
    3.0000  -10.3923    0.0000 C   0  0  0  0  0  0  0  0  0  0  0  0
    0.7500   -9.0933    0.0000 C   0  0  0  0  0  0  0  0  0  0  0  0
    1.5000   -7.7942    0.0000 N   0  0  0  0  0  0  0  0  0  0  0  0
    0.7500   -6.4952    0.0000 C   0  0  0  0  0  0  0  0  0  0  0  0
    1.5000   -5.1962    0.0000 C   0  0  0  0  0  0  0  0  0  0  0  0
    3.0000   -5.1962    0.0000 O   0  0  0  0  0  0  0  0  0  0  0  0
    0.7500   -3.8971    0.0000 C   0  0  0  0  0  0  0  0  0  0  0  0
    1.5000   -2.5981    0.0000 C   0  0  0  0  0  0  0  0  0  0  0  0
    0.7500   -1.2990    0.0000 C   0  0  0  0  0  0  0  0  0  0  0  0
    1.5000    0.0000    0.0000 C   0  0  0  0  0  0  0  0  0  0  0  0
    0.7500    1.2990    0.0000 C   0  0  0  0  0  0  0  0  0  0  0  0
   -0.7500    1.2990    0.0000 C   0  0  0  0  0  0  0  0  0  0  0  0
   -1.5000    0.0000    0.0000 C   0  0  0  0  0  0  0  0  0  0  0  0
   -0.7500   -1.2990    0.0000 C   0  0  0  0  0  0  0  0  0  0  0  0
   -0.7500   -3.8971    0.0000 N   0  0  0  0  0  0  0  0  0  0  0  0
   -1.5000   -5.1962    0.0000 C   0  0  0  0  0  0  0  0  0  0  0  0
   -0.7500   -6.4952    0.0000 O   0  0  0  0  0  0  0  0  0  0  0  0
   -3.0000   -5.1962    0.0000 O   0  0  0  0  0  0  0  0  0  0  0  0
   -3.7500   -6.4952    0.0000 C   0  0  0  0  0  0  0  0  0  0  0  0
   -3.1399   -7.8655    0.0000 C   0  0  0  0  0  0  0  0  0  0  0  0
   -4.2546   -8.8692    0.0000 C   0  0  0  0  0  0  0  0  0  0  0  0
   -5.5537   -8.1192    0.0000 O   0  0  0  0  0  0  0  0  0  0  0  0
   -5.2418   -6.6520    0.0000 C   0  0  0  0  0  0  0  0  0  0  0  0
    3.0000   -7.7942    0.0000 S   0  0  0  0  0  0  0  0  0  0  0  0
    3.0000   -6.2942    0.0000 O   0  0  0  0  0  0  0  0  0  0  0  0
    3.0000   -9.2942    0.0000 O   0  0  0  0  0  0  0  0  0  0  0  0
    4.5000   -7.7942    0.0000 C   0  0  0  0  0  0  0  0  0  0  0  0
    5.2500   -9.0933    0.0000 C   0  0  0  0  0  0  0  0  0  0  0  0
    6.7500   -9.0933    0.0000 C   0  0  0  0  0  0  0  0  0  0  0  0
    7.5000   -7.7942    0.0000 C   0  0  0  0  0  0  0  0  0  0  0  0
    9.0000   -7.7942    0.0000 N   0  0  0  0  0  0  0  0  0  0  0  0
    6.7500   -6.4952    0.0000 C   0  0  0  0  0  0  0  0  0  0  0  0
    5.2500   -6.4952    0.0000 C   0  0  0  0  0  0  0  0  0  0  0  0
  1  2  1  0
  2  3  1  0
  2  4  1  0
  4  5  1  0
  5  6  1  0
  6  7  1  0
  7  8  1  6
  7  9  1  0
  9 10  1  1
 10 11  1  0
 11 12  2  0
 12 13  1  0
 13 14  2  0
 14 15  1  0
 15 16  2  0
  9 17  1  0
 17 18  1  0
 18 19  2  0
 18 20  1  0
 21 20  1  1
 21 22  1  0
 22 23  1  0
 23 24  1  0
 24 25  1  0
  5 26  1  0
 26 27  2  0
 26 28  2  0
 26 29  1  0
 29 30  2  0
 30 31  1  0
 31 32  2  0
 32 33  1  0
 32 34  1  0
 34 35  2  0
 16 11  1  0
 25 21  1  0
 35 29  1  0
M  END
>  <assay_description>  (101) 
Inhibition of recombinant human BSEP expressed in baculovirus infected sf9 cell plasma membrane vesicles assessed as reduction in ATP-dependent [3H]-taurocholate uptake in to vesicles after 15 to 20 mins

>  <molecule_pref_name>  (101) 
AMPRENAVIR

>  <canonical_smiles>  (101) 
CC(C)CN(C[C@@H](O)[C@H](Cc1ccccc1)NC(=O)O[C@H]1CCOC1)S(=O)(=O)c1ccc(N)cc1

>  <pchembl_value>  (101) 
4.35

>  <standard_type>  (101) 
IC50

>  <standard_relation>  (101) 
=

>  <standard_value>  (101) 
44800.0

>  <standard_units>  (101) 
nM

>  <target_pref_name>  (101) 
Bile salt export pump

>  <target_organism>  (101) 
Homo sapiens

$$$$
CHEMBL1513
     RDKit          2D

 32 36  0  0  0  0  0  0  0  0999 V2000
    1.4746    8.7232    0.0000 C   0  0  0  0  0  0  0  0  0  0  0  0
    0.4709    7.6085    0.0000 C   0  0  0  0  0  0  0  0  0  0  0  0
    0.9345    6.1819    0.0000 C   0  0  0  0  0  0  0  0  0  0  0  0
   -0.0692    5.0672    0.0000 C   0  0  0  0  0  0  0  0  0  0  0  0
    0.3943    3.6406    0.0000 C   0  0  0  0  0  0  0  0  0  0  0  0
   -0.4874    2.4271    0.0000 N   0  0  0  0  0  0  0  0  0  0  0  0
    0.3943    1.2135    0.0000 C   0  0  0  0  0  0  0  0  0  0  0  0
    1.2760    0.0000    0.0000 C   0  0  0  0  0  0  0  0  0  0  0  0
    0.3943   -1.2135    0.0000 C   0  0  0  0  0  0  0  0  0  0  0  0
   -1.0323   -0.7500    0.0000 C   0  0  0  0  0  0  0  0  0  0  0  0
   -1.0323    0.7500    0.0000 C   0  0  0  0  0  0  0  0  0  0  0  0
    1.8209    1.6771    0.0000 C   0  0  0  0  0  0  0  0  0  0  0  0
    3.0344    0.7954    0.0000 O   0  0  0  0  0  0  0  0  0  0  0  0
    1.8209    3.1771    0.0000 N   0  0  0  0  0  0  0  0  0  0  0  0
    3.0344    4.0587    0.0000 C   0  0  0  0  0  0  0  0  0  0  0  0
    4.4047    3.4486    0.0000 C   0  0  0  0  0  0  0  0  0  0  0  0
    4.5615    1.9568    0.0000 C   0  0  0  0  0  0  0  0  0  0  0  0
    5.9318    1.3467    0.0000 C   0  0  0  0  0  0  0  0  0  0  0  0
    7.1454    2.2284    0.0000 C   0  0  0  0  0  0  0  0  0  0  0  0
    8.5157    1.6183    0.0000 C   0  0  0  0  0  0  0  0  0  0  0  0
    8.6725    0.1265    0.0000 C   0  0  0  0  0  0  0  0  0  0  0  0
   10.0428   -0.4836    0.0000 C   0  0  0  0  0  0  0  0  0  0  0  0
   11.2563    0.3981    0.0000 C   0  0  0  0  0  0  0  0  0  0  0  0
   11.0995    1.8899    0.0000 C   0  0  0  0  0  0  0  0  0  0  0  0
    9.7292    2.5000    0.0000 C   0  0  0  0  0  0  0  0  0  0  0  0
    9.5724    3.9918    0.0000 C   0  0  0  0  0  0  0  0  0  0  0  0
    8.2734    4.7418    0.0000 N   0  0  0  0  0  0  0  0  0  0  0  0
    8.5852    6.2090    0.0000 N   0  0  0  0  0  0  0  0  0  0  0  0
   10.0770    6.3658    0.0000 N   0  0  0  0  0  0  0  0  0  0  0  0
   10.6871    4.9955    0.0000 N   0  0  0  0  0  0  0  0  0  0  0  0
    6.9886    3.7202    0.0000 C   0  0  0  0  0  0  0  0  0  0  0  0
    5.6183    4.3303    0.0000 C   0  0  0  0  0  0  0  0  0  0  0  0
  1  2  1  0
  2  3  1  0
  3  4  1  0
  4  5  1  0
  5  6  2  0
  6  7  1  0
  7  8  1  0
  8  9  1  0
  9 10  1  0
 10 11  1  0
  7 12  1  0
 12 13  2  0
 12 14  1  0
 14 15  1  0
 15 16  1  0
 16 17  2  0
 17 18  1  0
 18 19  2  0
 19 20  1  0
 20 21  2  0
 21 22  1  0
 22 23  2  0
 23 24  1  0
 24 25  2  0
 25 26  1  0
 26 27  1  0
 27 28  2  0
 28 29  1  0
 29 30  1  0
 19 31  1  0
 31 32  2  0
 14  5  1  0
 32 16  1  0
 11  7  1  0
 25 20  1  0
 30 26  2  0
M  END
>  <assay_description>  (102) 
Inhibition of recombinant human BSEP expressed in baculovirus infected sf9 cell plasma membrane vesicles assessed as reduction in ATP-dependent [3H]-taurocholate uptake in to vesicles after 15 to 20 mins

>  <molecule_pref_name>  (102) 
IRBESARTAN

>  <canonical_smiles>  (102) 
CCCCC1=NC2(CCCC2)C(=O)N1Cc1ccc(-c2ccccc2-c2nn[nH]n2)cc1

>  <pchembl_value>  (102) 
5.14

>  <standard_type>  (102) 
IC50

>  <standard_relation>  (102) 
=

>  <standard_value>  (102) 
7310.0

>  <standard_units>  (102) 
nM

>  <target_pref_name>  (102) 
Bile salt export pump

>  <target_organism>  (102) 
Homo sapiens

$$$$
CHEMBL191
     RDKit          2D

 30 33  0  0  0  0  0  0  0  0999 V2000
   -5.6836   -2.4482    0.0000 C   0  0  0  0  0  0  0  0  0  0  0  0
   -4.2164   -2.1363    0.0000 C   0  0  0  0  0  0  0  0  0  0  0  0
   -3.2127   -3.2511    0.0000 C   0  0  0  0  0  0  0  0  0  0  0  0
   -1.7455   -2.9392    0.0000 C   0  0  0  0  0  0  0  0  0  0  0  0
   -0.7418   -4.0539    0.0000 C   0  0  0  0  0  0  0  0  0  0  0  0
   -1.0537   -5.5211    0.0000 N   0  0  0  0  0  0  0  0  0  0  0  0
    0.2454   -6.2711    0.0000 C   0  0  0  0  0  0  0  0  0  0  0  0
    0.4022   -7.7629    0.0000 Cl  0  0  0  0  0  0  0  0  0  0  0  0
    1.3601   -5.2674    0.0000 C   0  0  0  0  0  0  0  0  0  0  0  0
    2.8273   -5.5793    0.0000 C   0  0  0  0  0  0  0  0  0  0  0  0
    3.2909   -7.0059    0.0000 O   0  0  0  0  0  0  0  0  0  0  0  0
    0.7500   -3.8971    0.0000 N   0  0  0  0  0  0  0  0  0  0  0  0
    1.5000   -2.5981    0.0000 C   0  0  0  0  0  0  0  0  0  0  0  0
    0.7500   -1.2990    0.0000 C   0  0  0  0  0  0  0  0  0  0  0  0
    1.5000    0.0000    0.0000 C   0  0  0  0  0  0  0  0  0  0  0  0
    0.7500    1.2990    0.0000 C   0  0  0  0  0  0  0  0  0  0  0  0
   -0.7500    1.2990    0.0000 C   0  0  0  0  0  0  0  0  0  0  0  0
   -1.5000    2.5981    0.0000 C   0  0  0  0  0  0  0  0  0  0  0  0
   -0.7500    3.8971    0.0000 C   0  0  0  0  0  0  0  0  0  0  0  0
   -1.5000    5.1962    0.0000 C   0  0  0  0  0  0  0  0  0  0  0  0
   -3.0000    5.1962    0.0000 C   0  0  0  0  0  0  0  0  0  0  0  0
   -3.7500    3.8971    0.0000 C   0  0  0  0  0  0  0  0  0  0  0  0
   -3.0000    2.5981    0.0000 C   0  0  0  0  0  0  0  0  0  0  0  0
   -3.7500    1.2990    0.0000 C   0  0  0  0  0  0  0  0  0  0  0  0
   -3.1399   -0.0713    0.0000 N   0  0  0  0  0  0  0  0  0  0  0  0
   -4.2546   -1.0750    0.0000 N   0  0  0  0  0  0  0  0  0  0  0  0
   -5.5537   -0.3250    0.0000 N   0  0  0  0  0  0  0  0  0  0  0  0
   -5.2418    1.1422    0.0000 N   0  0  0  0  0  0  0  0  0  0  0  0
   -1.5000    0.0000    0.0000 C   0  0  0  0  0  0  0  0  0  0  0  0
   -0.7500   -1.2990    0.0000 C   0  0  0  0  0  0  0  0  0  0  0  0
  1  2  1  0
  2  3  1  0
  3  4  1  0
  4  5  1  0
  5  6  2  0
  6  7  1  0
  7  8  1  0
  7  9  2  0
  9 10  1  0
 10 11  1  0
  9 12  1  0
 12 13  1  0
 13 14  1  0
 14 15  2  0
 15 16  1  0
 16 17  2  0
 17 18  1  0
 18 19  2  0
 19 20  1  0
 20 21  2  0
 21 22  1  0
 22 23  2  0
 23 24  1  0
 24 25  2  0
 25 26  1  0
 26 27  2  0
 27 28  1  0
 17 29  1  0
 29 30  2  0
 12  5  1  0
 30 14  1  0
 23 18  1  0
 28 24  1  0
M  END
>  <assay_description>  (103) 
Inhibition of recombinant human BSEP expressed in baculovirus infected sf9 cell plasma membrane vesicles assessed as reduction in ATP-dependent [3H]-taurocholate uptake in to vesicles after 15 to 20 mins

>  <molecule_pref_name>  (103) 
LOSARTAN

>  <canonical_smiles>  (103) 
CCCCc1nc(Cl)c(CO)n1Cc1ccc(-c2ccccc2-c2nnn[nH]2)cc1

>  <pchembl_value>  (103) 
5.07

>  <standard_type>  (103) 
IC50

>  <standard_relation>  (103) 
=

>  <standard_value>  (103) 
8530.0

>  <standard_units>  (103) 
nM

>  <target_pref_name>  (103) 
Bile salt export pump

>  <target_organism>  (103) 
Homo sapiens

$$$$
CHEMBL503
     RDKit          2D

 29 31  0  0  0  0  0  0  0  0999 V2000
    7.5000   -0.0000    0.0000 C   0  0  0  0  0  0  0  0  0  0  0  0
    6.0000    0.0000    0.0000 C   0  0  0  0  0  0  0  0  0  0  0  0
    5.2500   -1.2990    0.0000 C   0  0  0  0  0  0  0  0  0  0  0  0
    6.0000   -2.5981    0.0000 C   0  0  0  0  0  0  0  0  0  0  0  0
    3.7500   -1.2990    0.0000 C   0  0  0  0  0  0  0  0  0  0  0  0
    3.0000   -2.5981    0.0000 O   0  0  0  0  0  0  0  0  0  0  0  0
    3.0000    0.0000    0.0000 O   0  0  0  0  0  0  0  0  0  0  0  0
    1.5000    0.0000    0.0000 C   0  0  0  0  0  0  0  0  0  0  0  0
    0.7500   -1.2990    0.0000 C   0  0  0  0  0  0  0  0  0  0  0  0
   -0.7500   -1.2990    0.0000 C   0  0  0  0  0  0  0  0  0  0  0  0
   -1.5000   -2.5981    0.0000 C   0  0  0  0  0  0  0  0  0  0  0  0
   -1.5000    0.0000    0.0000 C   0  0  0  0  0  0  0  0  0  0  0  0
   -0.7500    1.2990    0.0000 C   0  0  0  0  0  0  0  0  0  0  0  0
   -1.5000    2.5981    0.0000 C   0  0  0  0  0  0  0  0  0  0  0  0
   -0.7500    3.8971    0.0000 C   0  0  0  0  0  0  0  0  0  0  0  0
    0.7500    3.8971    0.0000 C   0  0  0  0  0  0  0  0  0  0  0  0
    1.5000    5.1962    0.0000 C   0  0  0  0  0  0  0  0  0  0  0  0
    1.5000    2.5981    0.0000 C   0  0  0  0  0  0  0  0  0  0  0  0
    3.0000    2.5981    0.0000 C   0  0  0  0  0  0  0  0  0  0  0  0
    3.7500    3.8971    0.0000 C   0  0  0  0  0  0  0  0  0  0  0  0
    5.2500    3.8971    0.0000 C   0  0  0  0  0  0  0  0  0  0  0  0
    6.0000    5.1962    0.0000 C   0  0  0  0  0  0  0  0  0  0  0  0
    7.5000    5.1962    0.0000 C   0  0  0  0  0  0  0  0  0  0  0  0
    8.2500    6.4952    0.0000 O   0  0  0  0  0  0  0  0  0  0  0  0
    8.2500    3.8971    0.0000 C   0  0  0  0  0  0  0  0  0  0  0  0
    7.5000    2.5981    0.0000 C   0  0  0  0  0  0  0  0  0  0  0  0
    8.2500    1.2990    0.0000 O   0  0  0  0  0  0  0  0  0  0  0  0
    6.0000    2.5981    0.0000 O   0  0  0  0  0  0  0  0  0  0  0  0
    0.7500    1.2990    0.0000 C   0  0  0  0  0  0  0  0  0  0  0  0
  1  2  1  0
  2  3  1  0
  3  4  1  6
  3  5  1  0
  5  6  2  0
  5  7  1  0
  8  7  1  1
  8  9  1  0
  9 10  1  0
 10 11  1  1
 10 12  1  0
 12 13  2  0
 13 14  1  0
 14 15  2  0
 15 16  1  0
 16 17  1  6
 16 18  1  0
 18 19  1  6
 19 20  1  0
 21 20  1  6
 21 22  1  0
 22 23  1  0
 23 24  1  1
 23 25  1  0
 25 26  1  0
 26 27  2  0
 26 28  1  0
 18 29  1  0
 29  8  1  0
 29 13  1  1
 28 21  1  0
M  END
>  <assay_description>  (104) 
Inhibition of recombinant human BSEP expressed in baculovirus infected sf9 cell plasma membrane vesicles assessed as reduction in ATP-dependent [3H]-taurocholate uptake in to vesicles after 15 to 20 mins

>  <molecule_pref_name>  (104) 
LOVASTATIN

>  <canonical_smiles>  (104) 
CC[C@H](C)C(=O)O[C@H]1C[C@@H](C)C=C2C=C[C@H](C)[C@H](CC[C@@H]3C[C@@H](O)CC(=O)O3)[C@H]21

>  <pchembl_value>  (104) 
4.71

>  <standard_type>  (104) 
IC50

>  <standard_relation>  (104) 
=

>  <standard_value>  (104) 
19300.0

>  <standard_units>  (104) 
nM

>  <target_pref_name>  (104) 
Bile salt export pump

>  <target_organism>  (104) 
Homo sapiens

$$$$
CHEMBL584
     RDKit          2D

 40 43  0  0  0  0  0  0  0  0999 V2000
    5.2500  -11.6913    0.0000 C   0  0  0  0  0  0  0  0  0  0  0  0
    3.7500  -11.6913    0.0000 C   0  0  0  0  0  0  0  0  0  0  0  0
    3.0000  -12.9904    0.0000 C   0  0  0  0  0  0  0  0  0  0  0  0
    3.7500  -14.2894    0.0000 O   0  0  0  0  0  0  0  0  0  0  0  0
    1.5000  -12.9904    0.0000 C   0  0  0  0  0  0  0  0  0  0  0  0
    0.7500  -11.6913    0.0000 C   0  0  0  0  0  0  0  0  0  0  0  0
    1.5000  -10.3923    0.0000 C   0  0  0  0  0  0  0  0  0  0  0  0
    3.0000  -10.3923    0.0000 C   0  0  0  0  0  0  0  0  0  0  0  0
    3.7500   -9.0933    0.0000 C   0  0  0  0  0  0  0  0  0  0  0  0
    5.2500   -9.0933    0.0000 O   0  0  0  0  0  0  0  0  0  0  0  0
    3.0000   -7.7942    0.0000 N   0  0  0  0  0  0  0  0  0  0  0  0
    3.7500   -6.4952    0.0000 C   0  0  0  0  0  0  0  0  0  0  0  0
    5.2500   -6.4952    0.0000 C   0  0  0  0  0  0  0  0  0  0  0  0
    6.0000   -7.7942    0.0000 S   0  0  0  0  0  0  0  0  0  0  0  0
    7.5000   -7.7942    0.0000 C   0  0  0  0  0  0  0  0  0  0  0  0
    8.2500   -9.0933    0.0000 C   0  0  0  0  0  0  0  0  0  0  0  0
    9.7500   -9.0933    0.0000 C   0  0  0  0  0  0  0  0  0  0  0  0
   10.5000   -7.7942    0.0000 C   0  0  0  0  0  0  0  0  0  0  0  0
    9.7500   -6.4952    0.0000 C   0  0  0  0  0  0  0  0  0  0  0  0
    8.2500   -6.4952    0.0000 C   0  0  0  0  0  0  0  0  0  0  0  0
    3.0000   -5.1962    0.0000 C   0  0  0  0  0  0  0  0  0  0  0  0
    3.7500   -3.8971    0.0000 O   0  0  0  0  0  0  0  0  0  0  0  0
    1.5000   -5.1962    0.0000 C   0  0  0  0  0  0  0  0  0  0  0  0
    0.7500   -3.8971    0.0000 N   0  0  0  0  0  0  0  0  0  0  0  0
    1.5000   -2.5981    0.0000 C   0  0  0  0  0  0  0  0  0  0  0  0
    0.7500   -1.2990    0.0000 C   0  0  0  0  0  0  0  0  0  0  0  0
    1.5000    0.0000    0.0000 C   0  0  0  0  0  0  0  0  0  0  0  0
    0.7500    1.2990    0.0000 C   0  0  0  0  0  0  0  0  0  0  0  0
   -0.7500    1.2990    0.0000 C   0  0  0  0  0  0  0  0  0  0  0  0
   -1.5000    0.0000    0.0000 C   0  0  0  0  0  0  0  0  0  0  0  0
   -0.7500   -1.2990    0.0000 C   0  0  0  0  0  0  0  0  0  0  0  0
   -1.5000   -2.5981    0.0000 C   0  0  0  0  0  0  0  0  0  0  0  0
   -0.7500   -3.8971    0.0000 C   0  0  0  0  0  0  0  0  0  0  0  0
   -1.5000   -5.1962    0.0000 C   0  0  0  0  0  0  0  0  0  0  0  0
   -0.7500   -6.4952    0.0000 O   0  0  0  0  0  0  0  0  0  0  0  0
   -3.0000   -5.1962    0.0000 N   0  0  0  0  0  0  0  0  0  0  0  0
   -3.7500   -6.4952    0.0000 C   0  0  0  0  0  0  0  0  0  0  0  0
   -5.0490   -5.7452    0.0000 C   0  0  0  0  0  0  0  0  0  0  0  0
   -2.4510   -7.2452    0.0000 C   0  0  0  0  0  0  0  0  0  0  0  0
   -4.5000   -7.7942    0.0000 C   0  0  0  0  0  0  0  0  0  0  0  0
  1  2  1  0
  2  3  2  0
  3  4  1  0
  3  5  1  0
  5  6  2  0
  6  7  1  0
  7  8  2  0
  8  9  1  0
  9 10  2  0
  9 11  1  0
 11 12  1  0
 12 13  1  6
 13 14  1  0
 14 15  1  0
 15 16  2  0
 16 17  1  0
 17 18  2  0
 18 19  1  0
 19 20  2  0
 12 21  1  0
 21 22  1  1
 21 23  1  0
 23 24  1  0
 24 25  1  0
 26 25  1  6
 26 27  1  0
 27 28  1  0
 28 29  1  0
 29 30  1  0
 31 30  1  6
 31 32  1  0
 32 33  1  0
 33 34  1  6
 34 35  2  0
 34 36  1  0
 36 37  1  0
 37 38  1  0
 37 39  1  0
 37 40  1  0
  8  2  1  0
 20 15  1  0
 33 24  1  0
 31 26  1  0
M  END
>  <assay_description>  (105) 
Inhibition of recombinant human BSEP expressed in baculovirus infected sf9 cell plasma membrane vesicles assessed as reduction in ATP-dependent [3H]-taurocholate uptake in to vesicles after 15 to 20 mins

>  <molecule_pref_name>  (105) 
NELFINAVIR

>  <canonical_smiles>  (105) 
Cc1c(O)cccc1C(=O)N[C@@H](CSc1ccccc1)[C@H](O)CN1C[C@H]2CCCC[C@H]2C[C@H]1C(=O)NC(C)(C)C

>  <pchembl_value>  (105) 
4.93

>  <standard_type>  (105) 
IC50

>  <standard_relation>  (105) 
=

>  <standard_value>  (105) 
11800.0

>  <standard_units>  (105) 
nM

>  <target_pref_name>  (105) 
Bile salt export pump

>  <target_organism>  (105) 
Homo sapiens

$$$$
CHEMBL1726
     RDKit          2D

 28 29  0  0  0  0  0  0  0  0999 V2000
    5.2500   -1.2990    0.0000 C   0  0  0  0  0  0  0  0  0  0  0  0
    3.7500   -1.2990    0.0000 O   0  0  0  0  0  0  0  0  0  0  0  0
    3.0000   -0.0000    0.0000 C   0  0  0  0  0  0  0  0  0  0  0  0
    3.5538    0.5734    0.0000 O   0  0  0  0  0  0  0  0  0  0  0  0
    1.5000    0.0000    0.0000 C   0  0  0  0  0  0  0  0  0  0  0  0
    0.7500   -1.2990    0.0000 C   0  0  0  0  0  0  0  0  0  0  0  0
    1.5000   -2.5981    0.0000 C   0  0  0  0  0  0  0  0  0  0  0  0
   -0.7500   -1.2990    0.0000 N   0  0  0  0  0  0  0  0  0  0  0  0
   -1.5000    0.0000    0.0000 C   0  0  0  0  0  0  0  0  0  0  0  0
   -3.0000    0.0000    0.0000 C   0  0  0  0  0  0  0  0  0  0  0  0
   -0.7500    1.2990    0.0000 C   0  0  0  0  0  0  0  0  0  0  0  0
   -1.5000    2.5981    0.0000 C   0  0  0  0  0  0  0  0  0  0  0  0
   -0.7500    3.8971    0.0000 O   0  0  0  0  0  0  0  0  0  0  0  0
   -3.0000    2.5981    0.0000 O   0  0  0  0  0  0  0  0  0  0  0  0
   -3.7500    3.8971    0.0000 C   0  0  0  0  0  0  0  0  0  0  0  0
   -5.2500    3.8971    0.0000 C   0  0  0  0  0  0  0  0  0  0  0  0
   -6.0000    5.1962    0.0000 C   0  0  0  0  0  0  0  0  0  0  0  0
   -6.0000    2.5981    0.0000 C   0  0  0  0  0  0  0  0  0  0  0  0
    0.7500    1.2990    0.0000 C   0  0  0  0  0  0  0  0  0  0  0  0
    1.5000    2.5981    0.0000 C   0  0  0  0  0  0  0  0  0  0  0  0
    0.7500    3.8971    0.0000 C   0  0  0  0  0  0  0  0  0  0  0  0
    1.5000    5.1962    0.0000 C   0  0  0  0  0  0  0  0  0  0  0  0
    3.0000    5.1962    0.0000 C   0  0  0  0  0  0  0  0  0  0  0  0
    3.7500    3.8971    0.0000 C   0  0  0  0  0  0  0  0  0  0  0  0
    3.0000    2.5981    0.0000 C   0  0  0  0  0  0  0  0  0  0  0  0
    3.7500    1.2990    0.0000 N   0  0  0  0  0  4  0  0  0  0  0  0
    3.3366   -0.1429    0.0000 O   0  0  0  0  0  0  0  0  0  0  0  0
    5.2500    1.2990    0.0000 O   0  0  0  0  0  1  0  0  0  0  0  0
  1  2  1  0
  2  3  1  0
  3  4  2  0
  3  5  1  0
  5  6  2  0
  6  7  1  0
  6  8  1  0
  8  9  1  0
  9 10  1  0
  9 11  2  0
 11 12  1  0
 12 13  2  0
 12 14  1  0
 14 15  1  0
 15 16  1  0
 16 17  1  0
 16 18  1  0
 11 19  1  0
 19 20  1  0
 20 21  2  0
 21 22  1  0
 22 23  2  0
 23 24  1  0
 24 25  2  0
 25 26  1  0
 26 27  2  0
 26 28  1  0
 19  5  1  0
 25 20  1  0
M  CHG  2  26   1  28  -1
M  END
>  <assay_description>  (106) 
Inhibition of recombinant human BSEP expressed in baculovirus infected sf9 cell plasma membrane vesicles assessed as reduction in ATP-dependent [3H]-taurocholate uptake in to vesicles after 15 to 20 mins

>  <molecule_pref_name>  (106) 
NISOLDIPINE

>  <canonical_smiles>  (106) 
COC(=O)C1=C(C)NC(C)=C(C(=O)OCC(C)C)C1c1ccccc1[N+](=O)[O-]

>  <pchembl_value>  (106) 
4.48

>  <standard_type>  (106) 
IC50

>  <standard_relation>  (106) 
=

>  <standard_value>  (106) 
33000.0

>  <standard_units>  (106) 
nM

>  <target_pref_name>  (106) 
Bile salt export pump

>  <target_organism>  (106) 
Homo sapiens

$$$$
CHEMBL1479
     RDKit          2D

 25 29  0  0  0  0  0  0  0  0999 V2000
   -8.2904    9.4529    0.0000 C   0  0  0  0  0  0  0  0  0  0  0  0
   -7.1757    8.4492    0.0000 C   0  0  0  0  0  0  0  0  0  0  0  0
   -6.0610    7.4455    0.0000 C   0  0  0  0  0  0  0  0  0  0  0  0
   -7.2897    6.5852    0.0000 O   0  0  0  0  0  0  0  0  0  0  0  0
   -5.1793    8.6591    0.0000 C   0  0  0  0  0  0  0  0  0  0  0  0
   -3.7527    8.1955    0.0000 C   0  0  0  0  0  0  0  0  0  0  0  0
   -3.7527    6.6955    0.0000 C   0  0  0  0  0  0  0  0  0  0  0  0
   -2.6380    5.6918    0.0000 C   0  0  0  0  0  0  0  0  0  0  0  0
   -1.2114    6.1554    0.0000 C   0  0  0  0  0  0  0  0  0  0  0  0
   -0.0967    5.1517    0.0000 C   0  0  0  0  0  0  0  0  0  0  0  0
   -0.4086    3.6844    0.0000 C   0  0  0  0  0  0  0  0  0  0  0  0
    0.7062    2.6807    0.0000 C   0  0  0  0  0  0  0  0  0  0  0  0
    0.3943    1.2135    0.0000 C   0  0  0  0  0  0  0  0  0  0  0  0
    1.2760    0.0000    0.0000 O   0  0  0  0  0  0  0  0  0  0  0  0
    0.3943   -1.2135    0.0000 N   0  0  0  0  0  0  0  0  0  0  0  0
   -1.0323   -0.7500    0.0000 C   0  0  0  0  0  0  0  0  0  0  0  0
   -1.0323    0.7500    0.0000 C   0  0  0  0  0  0  0  0  0  0  0  0
   -2.1470    1.7537    0.0000 C   0  0  0  0  0  0  0  0  0  0  0  0
   -1.8351    3.2209    0.0000 C   0  0  0  0  0  0  0  0  0  0  0  0
   -3.2617    2.7574    0.0000 C   0  0  0  0  0  0  0  0  0  0  0  0
   -2.9499    4.2246    0.0000 C   0  0  0  0  0  0  0  0  0  0  0  0
   -4.3764    3.7611    0.0000 C   0  0  0  0  0  0  0  0  0  0  0  0
   -5.4912    4.7648    0.0000 C   0  0  0  0  0  0  0  0  0  0  0  0
   -5.1793    6.2320    0.0000 C   0  0  0  0  0  0  0  0  0  0  0  0
   -6.5976    5.7436    0.0000 C   0  0  0  0  0  0  0  0  0  0  0  0
  1  2  3  0
  2  3  1  0
  3  4  1  1
  3  5  1  0
  5  6  1  0
  7  6  1  1
  7  8  1  0
  8  9  1  6
  9 10  1  0
 10 11  1  0
 11 12  2  0
 12 13  1  0
 13 14  1  0
 14 15  1  0
 15 16  2  0
 16 17  1  0
 17 18  1  0
 18 19  1  0
 19 20  1  1
 19 21  1  0
 21 22  1  1
 22 23  1  0
 23 24  1  0
 24 25  1  1
 24  3  1  0
 24  7  1  0
 21  8  1  0
 19 11  1  0
 17 13  2  0
M  END
>  <assay_description>  (107) 
Inhibition of recombinant human BSEP expressed in baculovirus infected sf9 cell plasma membrane vesicles assessed as reduction in ATP-dependent [3H]-taurocholate uptake in to vesicles after 15 to 20 mins

>  <molecule_pref_name>  (107) 
DANAZOL

>  <canonical_smiles>  (107) 
C#C[C@]1(O)CC[C@H]2[C@@H]3CCC4=Cc5oncc5C[C@]4(C)[C@H]3CC[C@@]21C

>  <pchembl_value>  (107) 
4.73

>  <standard_type>  (107) 
IC50

>  <standard_relation>  (107) 
=

>  <standard_value>  (107) 
18700.0

>  <standard_units>  (107) 
nM

>  <target_pref_name>  (107) 
Bile salt export pump

>  <target_organism>  (107) 
Homo sapiens

$$$$
CHEMBL603
     RDKit          2D

 41 45  0  0  0  0  0  0  0  0999 V2000
    0.7040   -6.2002    0.0000 C   0  0  0  0  0  0  0  0  0  0  0  0
   -0.4107   -5.1965    0.0000 O   0  0  0  0  0  0  0  0  0  0  0  0
   -1.8373   -5.6601    0.0000 C   0  0  0  0  0  0  0  0  0  0  0  0
   -2.1491   -7.1273    0.0000 C   0  0  0  0  0  0  0  0  0  0  0  0
   -3.5757   -7.5908    0.0000 C   0  0  0  0  0  0  0  0  0  0  0  0
   -3.8876   -9.0580    0.0000 C   0  0  0  0  0  0  0  0  0  0  0  0
   -2.7729  -10.0617    0.0000 O   0  0  0  0  0  0  0  0  0  0  0  0
   -5.3142   -9.5216    0.0000 N   0  0  0  0  0  0  0  0  0  0  0  0
   -5.6260  -10.9888    0.0000 S   0  0  0  0  0  0  0  0  0  0  0  0
   -4.1588  -11.3006    0.0000 O   0  0  0  0  0  0  0  0  0  0  0  0
   -7.0933  -10.6769    0.0000 O   0  0  0  0  0  0  0  0  0  0  0  0
   -5.9379  -12.4560    0.0000 C   0  0  0  0  0  0  0  0  0  0  0  0
   -7.3645  -12.9195    0.0000 C   0  0  0  0  0  0  0  0  0  0  0  0
   -7.6764  -14.3867    0.0000 C   0  0  0  0  0  0  0  0  0  0  0  0
   -6.5616  -15.3904    0.0000 C   0  0  0  0  0  0  0  0  0  0  0  0
   -5.1351  -14.9269    0.0000 C   0  0  0  0  0  0  0  0  0  0  0  0
   -4.8232  -13.4597    0.0000 C   0  0  0  0  0  0  0  0  0  0  0  0
   -3.3966  -12.9962    0.0000 C   0  0  0  0  0  0  0  0  0  0  0  0
   -4.6904   -6.5871    0.0000 C   0  0  0  0  0  0  0  0  0  0  0  0
   -4.3786   -5.1199    0.0000 C   0  0  0  0  0  0  0  0  0  0  0  0
   -2.9520   -4.6564    0.0000 C   0  0  0  0  0  0  0  0  0  0  0  0
   -2.6401   -3.1891    0.0000 C   0  0  0  0  0  0  0  0  0  0  0  0
   -1.2135   -2.7256    0.0000 C   0  0  0  0  0  0  0  0  0  0  0  0
   -0.0000   -3.6073    0.0000 C   0  0  0  0  0  0  0  0  0  0  0  0
    1.2135   -2.7256    0.0000 N   0  0  0  0  0  0  0  0  0  0  0  0
    2.6401   -3.1891    0.0000 C   0  0  0  0  0  0  0  0  0  0  0  0
    0.7500   -1.2990    0.0000 C   0  0  0  0  0  0  0  0  0  0  0  0
    1.5000    0.0000    0.0000 C   0  0  0  0  0  0  0  0  0  0  0  0
    0.7500    1.2990    0.0000 C   0  0  0  0  0  0  0  0  0  0  0  0
   -0.7500    1.2990    0.0000 C   0  0  0  0  0  0  0  0  0  0  0  0
   -1.5000    2.5981    0.0000 N   0  0  0  0  0  0  0  0  0  0  0  0
   -0.7500    3.8971    0.0000 C   0  0  0  0  0  0  0  0  0  0  0  0
    0.7500    3.8971    0.0000 O   0  0  0  0  0  0  0  0  0  0  0  0
   -1.5000    5.1962    0.0000 O   0  0  0  0  0  0  0  0  0  0  0  0
   -0.7500    6.4952    0.0000 C   0  0  0  0  0  0  0  0  0  0  0  0
   -1.3601    7.8655    0.0000 C   0  0  0  0  0  0  0  0  0  0  0  0
   -0.2454    8.8692    0.0000 C   0  0  0  0  0  0  0  0  0  0  0  0
    1.0537    8.1192    0.0000 C   0  0  0  0  0  0  0  0  0  0  0  0
    0.7418    6.6520    0.0000 C   0  0  0  0  0  0  0  0  0  0  0  0
   -1.5000    0.0000    0.0000 C   0  0  0  0  0  0  0  0  0  0  0  0
   -0.7500   -1.2990    0.0000 C   0  0  0  0  0  0  0  0  0  0  0  0
  1  2  1  0
  2  3  1  0
  3  4  2  0
  4  5  1  0
  5  6  1  0
  6  7  2  0
  6  8  1  0
  8  9  1  0
  9 10  2  0
  9 11  2  0
  9 12  1  0
 12 13  2  0
 13 14  1  0
 14 15  2  0
 15 16  1  0
 16 17  2  0
 17 18  1  0
  5 19  2  0
 19 20  1  0
 20 21  2  0
 21 22  1  0
 22 23  1  0
 23 24  2  0
 24 25  1  0
 25 26  1  0
 25 27  1  0
 27 28  2  0
 28 29  1  0
 29 30  2  0
 30 31  1  0
 31 32  1  0
 32 33  2  0
 32 34  1  0
 34 35  1  0
 35 36  1  0
 36 37  1  0
 37 38  1  0
 38 39  1  0
 30 40  1  0
 40 41  2  0
 21  3  1  0
 41 23  1  0
 17 12  1  0
 41 27  1  0
 39 35  1  0
M  END
>  <assay_description>  (108) 
Inhibition of recombinant human BSEP expressed in baculovirus infected sf9 cell plasma membrane vesicles assessed as reduction in ATP-dependent [3H]-taurocholate uptake in to vesicles after 15 to 20 mins

>  <molecule_pref_name>  (108) 
ZAFIRLUKAST

>  <canonical_smiles>  (108) 
COc1cc(C(=O)NS(=O)(=O)c2ccccc2C)ccc1Cc1cn(C)c2ccc(NC(=O)OC3CCCC3)cc12

>  <pchembl_value>  (108) 
4.96

>  <standard_type>  (108) 
IC50

>  <standard_relation>  (108) 
=

>  <standard_value>  (108) 
11100.0

>  <standard_units>  (108) 
nM

>  <target_pref_name>  (108) 
Bile salt export pump

>  <target_organism>  (108) 
Homo sapiens

$$$$
CHEMBL2051959
     RDKit          2D

 22 23  0  0  0  0  0  0  0  0999 V2000
   -4.3672  -12.5936    0.0000 C   0  0  0  0  0  0  0  0  0  0  0  0
   -3.2181  -11.6295    0.0000 C   0  0  0  0  0  0  0  0  0  0  0  0
   -1.8086  -12.1425    0.0000 O   0  0  0  0  0  0  0  0  0  0  0  0
   -0.6595  -11.1783    0.0000 C   0  0  0  0  0  0  0  0  0  0  0  0
   -0.9200   -9.7011    0.0000 O   0  0  0  0  0  0  0  0  0  0  0  0
    0.7500  -11.6913    0.0000 C   0  0  0  0  0  0  0  0  0  0  0  0
    1.5000  -10.3923    0.0000 C   0  0  0  0  0  0  0  0  0  0  0  0
    0.7500   -9.0933    0.0000 C   0  0  0  0  0  0  0  0  0  0  0  0
    1.5000   -7.7942    0.0000 C   0  0  0  0  0  0  0  0  0  0  0  0
    0.7500   -6.4952    0.0000 C   0  0  0  0  0  0  0  0  0  0  0  0
    1.5000   -5.1962    0.0000 C   0  0  0  0  0  0  0  0  0  0  0  0
    0.7500   -3.8971    0.0000 C   0  0  0  0  0  0  0  0  0  0  0  0
    1.5000   -2.5981    0.0000 O   0  0  0  0  0  0  0  0  0  0  0  0
    0.7500   -1.2990    0.0000 C   0  0  0  0  0  0  0  0  0  0  0  0
    1.5000    0.0000    0.0000 C   0  0  0  0  0  0  0  0  0  0  0  0
    0.7500    1.2990    0.0000 C   0  0  0  0  0  0  0  0  0  0  0  0
   -0.7500    1.2990    0.0000 C   0  0  0  0  0  0  0  0  0  0  0  0
   -1.5000    2.5981    0.0000 Cl  0  0  0  0  0  0  0  0  0  0  0  0
   -1.5000    0.0000    0.0000 C   0  0  0  0  0  0  0  0  0  0  0  0
   -0.7500   -1.2990    0.0000 C   0  0  0  0  0  0  0  0  0  0  0  0
    0.4895  -13.1686    0.0000 C   0  0  0  0  0  0  0  0  0  0  0  0
    1.8991  -12.6555    0.0000 O   0  0  0  0  0  0  0  0  0  0  0  0
  1  2  1  0
  2  3  1  0
  3  4  1  0
  4  5  2  0
  4  6  1  0
  6  7  1  1
  7  8  1  0
  8  9  1  0
  9 10  1  0
 10 11  1  0
 11 12  1  0
 12 13  1  0
 13 14  1  0
 14 15  2  0
 15 16  1  0
 16 17  2  0
 17 18  1  0
 17 19  1  0
 19 20  2  0
  6 21  1  0
 21 22  1  0
 22  6  1  0
 20 14  1  0
M  END
>  <assay_description>  (109) 
Inhibition of BSEP (unknown origin)

>  <molecule_pref_name>  (109) 
ETOMOXIR

>  <canonical_smiles>  (109) 
CCOC(=O)[C@@]1(CCCCCCOc2ccc(Cl)cc2)CO1

>  <pchembl_value>  (109) 
4.93

>  <standard_type>  (109) 
IC50

>  <standard_relation>  (109) 
=

>  <standard_value>  (109) 
11800.0

>  <standard_units>  (109) 
nM

>  <target_pref_name>  (109) 
Bile salt export pump

>  <target_organism>  (109) 
Homo sapiens

$$$$
CHEMBL715
     RDKit          2D

 22 25  0  0  0  0  0  0  0  0999 V2000
    2.3281   -7.6907    0.0000 C   0  0  0  0  0  0  0  0  0  0  0  0
    1.6772   -6.3393    0.0000 C   0  0  0  0  0  0  0  0  0  0  0  0
    0.2013   -6.0714    0.0000 C   0  0  0  0  0  0  0  0  0  0  0  0
    0.0000   -4.5850    0.0000 C   0  0  0  0  0  0  0  0  0  0  0  0
    1.3515   -3.9342    0.0000 C   0  0  0  0  0  0  0  0  0  0  0  0
    2.3880   -5.0184    0.0000 S   0  0  0  0  0  0  0  0  0  0  0  0
    1.6852   -2.4718    0.0000 N   0  0  0  0  0  0  0  0  0  0  0  0
    0.7500   -1.2990    0.0000 C   0  0  0  0  0  0  0  0  0  0  0  0
    1.5000    0.0000    0.0000 C   0  0  0  0  0  0  0  0  0  0  0  0
    0.7500    1.2990    0.0000 C   0  0  0  0  0  0  0  0  0  0  0  0
   -0.7500    1.2990    0.0000 C   0  0  0  0  0  0  0  0  0  0  0  0
   -1.5000    0.0000    0.0000 C   0  0  0  0  0  0  0  0  0  0  0  0
   -0.7500   -1.2990    0.0000 C   0  0  0  0  0  0  0  0  0  0  0  0
   -1.6852   -2.4718    0.0000 N   0  0  0  0  0  0  0  0  0  0  0  0
   -1.3515   -3.9342    0.0000 C   0  0  0  0  0  0  0  0  0  0  0  0
   -2.5242   -4.8694    0.0000 N   0  0  0  0  0  0  0  0  0  0  0  0
   -3.9205   -4.3214    0.0000 C   0  0  0  0  0  0  0  0  0  0  0  0
   -5.0933   -5.2566    0.0000 C   0  0  0  0  0  0  0  0  0  0  0  0
   -4.8697   -6.7399    0.0000 N   0  0  0  0  0  0  0  0  0  0  0  0
   -6.0424   -7.6751    0.0000 C   0  0  0  0  0  0  0  0  0  0  0  0
   -3.4734   -7.2879    0.0000 C   0  0  0  0  0  0  0  0  0  0  0  0
   -2.3006   -6.3527    0.0000 C   0  0  0  0  0  0  0  0  0  0  0  0
  1  2  1  0
  2  3  2  0
  3  4  1  0
  4  5  2  0
  5  6  1  0
  5  7  1  0
  7  8  1  0
  8  9  2  0
  9 10  1  0
 10 11  2  0
 11 12  1  0
 12 13  2  0
 13 14  1  0
 14 15  2  0
 15 16  1  0
 16 17  1  0
 17 18  1  0
 18 19  1  0
 19 20  1  0
 19 21  1  0
 21 22  1  0
  6  2  1  0
 13  8  1  0
 22 16  1  0
 15  4  1  0
M  END
>  <assay_description>  (110) 
Inhibition of human BSEP expressed in baculovirus transfected fall armyworm Sf21 cell membranes vesicles assessed as reduction in ATP-dependent [3H]-taurocholate transport into vesicles incubated for 5 mins by Topcount based rapid filtration method

>  <molecule_pref_name>  (110) 
OLANZAPINE

>  <canonical_smiles>  (110) 
Cc1cc2c(s1)Nc1ccccc1N=C2N1CCN(C)CC1

>  <pchembl_value>  (110) 
4.26

>  <standard_type>  (110) 
IC50

>  <standard_relation>  (110) 
=

>  <standard_value>  (110) 
54570.0

>  <standard_units>  (110) 
nM

>  <target_pref_name>  (110) 
Bile salt export pump

>  <target_organism>  (110) 
Homo sapiens

$$$$
CHEMBL193
     RDKit          2D

 25 26  0  0  0  0  0  0  0  0999 V2000
    5.2500   -1.2990    0.0000 C   0  0  0  0  0  0  0  0  0  0  0  0
    3.7500   -1.2990    0.0000 O   0  0  0  0  0  0  0  0  0  0  0  0
    3.0000    0.0000    0.0000 C   0  0  0  0  0  0  0  0  0  0  0  0
    3.7500    1.2990    0.0000 O   0  0  0  0  0  0  0  0  0  0  0  0
    1.5000    0.0000    0.0000 C   0  0  0  0  0  0  0  0  0  0  0  0
    0.7500   -1.2990    0.0000 C   0  0  0  0  0  0  0  0  0  0  0  0
    1.5000   -2.5981    0.0000 C   0  0  0  0  0  0  0  0  0  0  0  0
   -0.7500   -1.2990    0.0000 N   0  0  0  0  0  0  0  0  0  0  0  0
   -1.5000    0.0000    0.0000 C   0  0  0  0  0  0  0  0  0  0  0  0
   -3.0000    0.0000    0.0000 C   0  0  0  0  0  0  0  0  0  0  0  0
   -0.7500    1.2990    0.0000 C   0  0  0  0  0  0  0  0  0  0  0  0
   -1.5000    2.5981    0.0000 C   0  0  0  0  0  0  0  0  0  0  0  0
   -1.2803    3.3644    0.0000 O   0  0  0  0  0  0  0  0  0  0  0  0
   -3.0000    2.5981    0.0000 O   0  0  0  0  0  0  0  0  0  0  0  0
   -3.7500    3.8971    0.0000 C   0  0  0  0  0  0  0  0  0  0  0  0
    0.7500    1.2990    0.0000 C   0  0  0  0  0  0  0  0  0  0  0  0
    1.5000    2.5981    0.0000 C   0  0  0  0  0  0  0  0  0  0  0  0
    3.0000    2.5981    0.0000 C   0  0  0  0  0  0  0  0  0  0  0  0
    3.7500    3.8971    0.0000 C   0  0  0  0  0  0  0  0  0  0  0  0
    3.0000    5.1962    0.0000 C   0  0  0  0  0  0  0  0  0  0  0  0
    1.5000    5.1962    0.0000 C   0  0  0  0  0  0  0  0  0  0  0  0
    0.7500    3.8971    0.0000 C   0  0  0  0  0  0  0  0  0  0  0  0
   -0.7500    3.8971    0.0000 N   0  0  0  0  0  4  0  0  0  0  0  0
   -1.7920    2.8182    0.0000 O   0  0  0  0  0  0  0  0  0  0  0  0
   -1.5000    5.1962    0.0000 O   0  0  0  0  0  1  0  0  0  0  0  0
  1  2  1  0
  2  3  1  0
  3  4  2  0
  3  5  1  0
  5  6  2  0
  6  7  1  0
  6  8  1  0
  8  9  1  0
  9 10  1  0
  9 11  2  0
 11 12  1  0
 12 13  2  0
 12 14  1  0
 14 15  1  0
 11 16  1  0
 16 17  1  0
 17 18  2  0
 18 19  1  0
 19 20  2  0
 20 21  1  0
 21 22  2  0
 22 23  1  0
 23 24  2  0
 23 25  1  0
 16  5  1  0
 22 17  1  0
M  CHG  2  23   1  25  -1
M  END
>  <assay_description>  (111) 
Inhibition of human BSEP expressed in baculovirus transfected fall armyworm Sf21 cell membranes vesicles assessed as reduction in ATP-dependent [3H]-taurocholate transport into vesicles incubated for 5 mins by Topcount based rapid filtration method

>  <molecule_pref_name>  (111) 
NIFEDIPINE

>  <canonical_smiles>  (111) 
COC(=O)C1=C(C)NC(C)=C(C(=O)OC)C1c1ccccc1[N+](=O)[O-]

>  <pchembl_value>  (111) 
4.73

>  <standard_type>  (111) 
IC50

>  <standard_relation>  (111) 
=

>  <standard_value>  (111) 
18650.0

>  <standard_units>  (111) 
nM

>  <target_pref_name>  (111) 
Bile salt export pump

>  <target_organism>  (111) 
Homo sapiens

$$$$
CHEMBL6437
     RDKit          2D

 20 23  0  0  0  0  0  0  0  0999 V2000
    4.9840   -5.5326    0.0000 C   0  0  0  0  0  0  0  0  0  0  0  0
    3.8844   -4.5123    0.0000 N   0  0  0  0  0  0  0  0  0  0  0  0
    4.2182   -3.0499    0.0000 C   0  0  0  0  0  0  0  0  0  0  0  0
    3.1186   -2.0297    0.0000 C   0  0  0  0  0  0  0  0  0  0  0  0
    1.6852   -2.4718    0.0000 N   0  0  0  0  0  0  0  0  0  0  0  0
    0.7500   -1.2990    0.0000 C   0  0  0  0  0  0  0  0  0  0  0  0
    1.5000    0.0000    0.0000 C   0  0  0  0  0  0  0  0  0  0  0  0
    0.7500    1.2990    0.0000 C   0  0  0  0  0  0  0  0  0  0  0  0
   -0.7500    1.2990    0.0000 C   0  0  0  0  0  0  0  0  0  0  0  0
   -1.5000    0.0000    0.0000 C   0  0  0  0  0  0  0  0  0  0  0  0
   -0.7500   -1.2990    0.0000 C   0  0  0  0  0  0  0  0  0  0  0  0
   -1.6852   -2.4718    0.0000 C   0  0  0  0  0  0  0  0  0  0  0  0
   -1.3515   -3.9342    0.0000 C   0  0  0  0  0  0  0  0  0  0  0  0
   -2.5908   -4.7792    0.0000 C   0  0  0  0  0  0  0  0  0  0  0  0
   -2.4787   -6.2750    0.0000 C   0  0  0  0  0  0  0  0  0  0  0  0
   -1.1273   -6.9258    0.0000 C   0  0  0  0  0  0  0  0  0  0  0  0
    0.1121   -6.0808    0.0000 C   0  0  0  0  0  0  0  0  0  0  0  0
    0.0000   -4.5850    0.0000 C   0  0  0  0  0  0  0  0  0  0  0  0
    1.3515   -3.9342    0.0000 C   0  0  0  0  0  0  0  0  0  0  0  0
    2.4510   -4.9544    0.0000 C   0  0  0  0  0  0  0  0  0  0  0  0
  1  2  1  0
  2  3  1  0
  3  4  1  0
  4  5  1  0
  5  6  1  0
  6  7  2  0
  7  8  1  0
  8  9  2  0
  9 10  1  0
 10 11  2  0
 11 12  1  0
 12 13  1  0
 13 14  2  0
 14 15  1  0
 15 16  2  0
 16 17  1  0
 17 18  2  0
 18 19  1  0
 19 20  1  0
 20  2  1  0
 19  5  1  0
 11  6  1  0
 18 13  1  0
M  END
>  <assay_description>  (112) 
Inhibition of human BSEP expressed in baculovirus transfected fall armyworm Sf21 cell membranes vesicles assessed as reduction in ATP-dependent [3H]-taurocholate transport into vesicles incubated for 5 mins by Topcount based rapid filtration method

>  <molecule_pref_name>  (112) 
MIANSERIN

>  <canonical_smiles>  (112) 
CN1CCN2c3ccccc3Cc3ccccc3C2C1

>  <pchembl_value>  (112) 
4.33

>  <standard_type>  (112) 
IC50

>  <standard_relation>  (112) 
=

>  <standard_value>  (112) 
46820.0

>  <standard_units>  (112) 
nM

>  <target_pref_name>  (112) 
Bile salt export pump

>  <target_organism>  (112) 
Homo sapiens

$$$$
CHEMBL65717
     RDKit          2D

 19 20  0  0  0  0  0  0  0  0999 V2000
   -0.0000   -5.1073    0.0000 C   0  0  0  0  0  0  0  0  0  0  0  0
   -0.0000   -3.6073    0.0000 C   0  0  0  0  0  0  0  0  0  0  0  0
    1.2135   -2.7256    0.0000 C   0  0  0  0  0  0  0  0  0  0  0  0
    0.7500   -1.2990    0.0000 C   0  0  0  0  0  0  0  0  0  0  0  0
    1.5000    0.0000    0.0000 C   0  0  0  0  0  0  0  0  0  0  0  0
    3.0000    0.0000    0.0000 O   0  0  0  0  0  0  0  0  0  0  0  0
    3.7500    1.2990    0.0000 C   0  0  0  0  0  0  0  0  0  0  0  0
    5.2500    1.2990    0.0000 C   0  0  0  0  0  0  0  0  0  0  0  0
    6.0000    0.0000    0.0000 O   0  0  0  0  0  0  0  0  0  0  0  0
    6.0000    2.5981    0.0000 C   0  0  0  0  0  0  0  0  0  0  0  0
    7.5000    2.5981    0.0000 N   0  0  0  0  0  0  0  0  0  0  0  0
    8.2500    3.8971    0.0000 C   0  0  0  0  0  0  0  0  0  0  0  0
    9.7500    3.8971    0.0000 C   0  0  0  0  0  0  0  0  0  0  0  0
    7.5000    5.1962    0.0000 C   0  0  0  0  0  0  0  0  0  0  0  0
    0.7500    1.2990    0.0000 C   0  0  0  0  0  0  0  0  0  0  0  0
   -0.7500    1.2990    0.0000 C   0  0  0  0  0  0  0  0  0  0  0  0
   -1.5000    0.0000    0.0000 C   0  0  0  0  0  0  0  0  0  0  0  0
   -0.7500   -1.2990    0.0000 C   0  0  0  0  0  0  0  0  0  0  0  0
   -1.2135   -2.7256    0.0000 N   0  0  0  0  0  0  0  0  0  0  0  0
  1  2  1  0
  2  3  2  0
  3  4  1  0
  4  5  2  0
  5  6  1  0
  6  7  1  0
  7  8  1  0
  8  9  1  0
  8 10  1  0
 10 11  1  0
 11 12  1  0
 12 13  1  0
 12 14  1  0
  5 15  1  0
 15 16  2  0
 16 17  1  0
 17 18  2  0
 18 19  1  0
 19  2  1  0
 18  4  1  0
M  END
>  <assay_description>  (113) 
Inhibition of human BSEP expressed in baculovirus transfected fall armyworm Sf21 cell membranes vesicles assessed as reduction in ATP-dependent [3H]-taurocholate transport into vesicles incubated for 5 mins by Topcount based rapid filtration method

>  <molecule_pref_name>  (113) 
MEPINDOLOL

>  <canonical_smiles>  (113) 
Cc1cc2c(OCC(O)CNC(C)C)cccc2[nH]1

>  <pchembl_value>  (113) 
4.45

>  <standard_type>  (113) 
IC50

>  <standard_relation>  (113) 
=

>  <standard_value>  (113) 
35870.0

>  <standard_units>  (113) 
nM

>  <target_pref_name>  (113) 
Bile salt export pump

>  <target_organism>  (113) 
Homo sapiens

$$$$
CHEMBL852
     RDKit          2D

 19 19  0  0  0  0  0  0  0  0999 V2000
    3.0000   -2.5981    0.0000 N   0  0  0  0  0  0  0  0  0  0  0  0
    3.7500   -1.2990    0.0000 C   0  0  0  0  0  0  0  0  0  0  0  0
    3.0000    0.0000    0.0000 C   0  0  0  0  0  0  0  0  0  0  0  0
    1.5000    0.0000    0.0000 C   0  0  0  0  0  0  0  0  0  0  0  0
    0.7500   -1.2990    0.0000 C   0  0  0  0  0  0  0  0  0  0  0  0
   -0.7500   -1.2990    0.0000 C   0  0  0  0  0  0  0  0  0  0  0  0
   -1.5000    0.0000    0.0000 C   0  0  0  0  0  0  0  0  0  0  0  0
   -3.0000    0.0000    0.0000 N   0  0  0  0  0  0  0  0  0  0  0  0
   -3.7500    1.2990    0.0000 C   0  0  0  0  0  0  0  0  0  0  0  0
   -5.2500    1.2990    0.0000 C   0  0  0  0  0  0  0  0  0  0  0  0
   -6.0000    2.5981    0.0000 Cl  0  0  0  0  0  0  0  0  0  0  0  0
   -3.7500   -1.2990    0.0000 C   0  0  0  0  0  0  0  0  0  0  0  0
   -5.2500   -1.2990    0.0000 C   0  0  0  0  0  0  0  0  0  0  0  0
   -6.0000   -2.5981    0.0000 Cl  0  0  0  0  0  0  0  0  0  0  0  0
   -0.7500    1.2990    0.0000 C   0  0  0  0  0  0  0  0  0  0  0  0
    0.7500    1.2990    0.0000 C   0  0  0  0  0  0  0  0  0  0  0  0
    5.2500   -1.2990    0.0000 C   0  0  0  0  0  0  0  0  0  0  0  0
    6.0000    0.0000    0.0000 O   0  0  0  0  0  0  0  0  0  0  0  0
    6.0000   -2.5981    0.0000 O   0  0  0  0  0  0  0  0  0  0  0  0
  2  1  1  1
  2  3  1  0
  3  4  1  0
  4  5  2  0
  5  6  1  0
  6  7  2  0
  7  8  1  0
  8  9  1  0
  9 10  1  0
 10 11  1  0
  8 12  1  0
 12 13  1  0
 13 14  1  0
  7 15  1  0
 15 16  2  0
  2 17  1  0
 17 18  2  0
 17 19  1  0
 16  4  1  0
M  END
>  <assay_description>  (114) 
Inhibition of human BSEP expressed in baculovirus transfected fall armyworm Sf21 cell membranes vesicles assessed as reduction in ATP-dependent [3H]-taurocholate transport into vesicles incubated for 5 mins by Topcount based rapid filtration method

>  <molecule_pref_name>  (114) 
MELPHALAN

>  <canonical_smiles>  (114) 
N[C@@H](Cc1ccc(N(CCCl)CCCl)cc1)C(=O)O

>  <pchembl_value>  (114) 
4.03

>  <standard_type>  (114) 
IC50

>  <standard_relation>  (114) 
=

>  <standard_value>  (114) 
93750.0

>  <standard_units>  (114) 
nM

>  <target_pref_name>  (114) 
Bile salt export pump

>  <target_organism>  (114) 
Homo sapiens

$$$$
CHEMBL509
     RDKit          2D

 19 20  0  0  0  0  0  0  0  0999 V2000
    3.0000    0.0000    0.0000 C   0  0  0  0  0  0  0  0  0  0  0  0
    1.5000    0.0000    0.0000 C   0  0  0  0  0  0  0  0  0  0  0  0
    0.7500   -1.2990    0.0000 C   0  0  0  0  0  0  0  0  0  0  0  0
   -0.7500   -1.2990    0.0000 C   0  0  0  0  0  0  0  0  0  0  0  0
   -1.5000    0.0000    0.0000 C   0  0  0  0  0  0  0  0  0  0  0  0
   -3.0000    0.0000    0.0000 Cl  0  0  0  0  0  0  0  0  0  0  0  0
   -0.7500    1.2990    0.0000 C   0  0  0  0  0  0  0  0  0  0  0  0
   -1.5000    2.5981    0.0000 N   0  0  0  0  0  0  0  0  0  0  0  0
   -0.7500    3.8971    0.0000 C   0  0  0  0  0  0  0  0  0  0  0  0
    0.7500    3.8971    0.0000 C   0  0  0  0  0  0  0  0  0  0  0  0
    1.5000    5.1962    0.0000 C   0  0  0  0  0  0  0  0  0  0  0  0
    0.7500    6.4952    0.0000 C   0  0  0  0  0  0  0  0  0  0  0  0
   -0.7500    6.4952    0.0000 C   0  0  0  0  0  0  0  0  0  0  0  0
   -1.5000    5.1962    0.0000 C   0  0  0  0  0  0  0  0  0  0  0  0
   -3.0000    5.1962    0.0000 C   0  0  0  0  0  0  0  0  0  0  0  0
   -3.7500    3.8971    0.0000 O   0  0  0  0  0  0  0  0  0  0  0  0
   -3.7500    6.4952    0.0000 O   0  0  0  0  0  0  0  0  0  0  0  0
    0.7500    1.2990    0.0000 C   0  0  0  0  0  0  0  0  0  0  0  0
    1.5000    2.5981    0.0000 Cl  0  0  0  0  0  0  0  0  0  0  0  0
  1  2  1  0
  2  3  2  0
  3  4  1  0
  4  5  2  0
  5  6  1  0
  5  7  1  0
  7  8  1  0
  8  9  1  0
  9 10  2  0
 10 11  1  0
 11 12  2  0
 12 13  1  0
 13 14  2  0
 14 15  1  0
 15 16  2  0
 15 17  1  0
  7 18  2  0
 18 19  1  0
 18  2  1  0
 14  9  1  0
M  END
>  <assay_description>  (115) 
Inhibition of human BSEP expressed in baculovirus transfected fall armyworm Sf21 cell membranes vesicles assessed as reduction in ATP-dependent [3H]-taurocholate transport into vesicles incubated for 5 mins by Topcount based rapid filtration method

>  <molecule_pref_name>  (115) 
MECLOFENAMIC ACID

>  <canonical_smiles>  (115) 
Cc1ccc(Cl)c(Nc2ccccc2C(=O)O)c1Cl

>  <pchembl_value>  (115) 
4.57

>  <standard_type>  (115) 
IC50

>  <standard_relation>  (115) 
=

>  <standard_value>  (115) 
27240.0

>  <standard_units>  (115) 
nM

>  <target_pref_name>  (115) 
Bile salt export pump

>  <target_organism>  (115) 
Homo sapiens

$$$$
CHEMBL36648
     RDKit          2D

 23 24  0  0  0  0  0  0  0  0999 V2000
   -0.7500   -6.4952    0.0000 C   0  0  0  0  0  0  0  0  0  0  0  0
   -1.5000   -5.1962    0.0000 O   0  0  0  0  0  0  0  0  0  0  0  0
   -0.7500   -3.8971    0.0000 C   0  0  0  0  0  0  0  0  0  0  0  0
    0.7500   -3.8971    0.0000 C   0  0  0  0  0  0  0  0  0  0  0  0
    1.5000   -5.1962    0.0000 O   0  0  0  0  0  0  0  0  0  0  0  0
    0.7500   -6.4952    0.0000 C   0  0  0  0  0  0  0  0  0  0  0  0
    1.5000   -2.5981    0.0000 C   0  0  0  0  0  0  0  0  0  0  0  0
    3.0000   -2.5981    0.0000 O   0  0  0  0  0  0  0  0  0  0  0  0
    3.7500   -3.8971    0.0000 C   0  0  0  0  0  0  0  0  0  0  0  0
    5.2500   -3.8971    0.0000 C   0  0  0  0  0  0  0  0  0  0  0  0
    3.0000   -5.1962    0.0000 O   0  0  0  0  0  0  0  0  0  0  0  0
    0.7500   -1.2990    0.0000 C   0  0  0  0  0  0  0  0  0  0  0  0
    1.5000    0.0000    0.0000 C   0  0  0  0  0  0  0  0  0  0  0  0
    0.7500    1.2990    0.0000 C   0  0  0  0  0  0  0  0  0  0  0  0
    1.5000    2.5981    0.0000 Cl  0  0  0  0  0  0  0  0  0  0  0  0
   -0.7500    1.2990    0.0000 C   0  0  0  0  0  0  0  0  0  0  0  0
   -1.5000    0.0000    0.0000 C   0  0  0  0  0  0  0  0  0  0  0  0
   -0.7500   -1.2990    0.0000 C   0  0  0  0  0  0  0  0  0  0  0  0
   -1.5000   -2.5981    0.0000 C   0  0  0  0  0  0  0  0  0  0  0  0
   -3.0000   -2.5981    0.0000 O   0  0  0  0  0  0  0  0  0  0  0  0
   -3.7500   -3.8971    0.0000 C   0  0  0  0  0  0  0  0  0  0  0  0
   -5.2500   -3.8971    0.0000 C   0  0  0  0  0  0  0  0  0  0  0  0
   -3.0000   -5.1962    0.0000 O   0  0  0  0  0  0  0  0  0  0  0  0
  1  2  1  0
  2  3  1  0
  3  4  2  0
  4  5  1  0
  5  6  1  0
  4  7  1  0
  7  8  1  0
  8  9  1  0
  9 10  1  0
  9 11  2  0
  7 12  2  0
 12 13  1  0
 13 14  2  0
 14 15  1  0
 14 16  1  0
 16 17  2  0
 17 18  1  0
 18 19  2  0
 19 20  1  0
 20 21  1  0
 21 22  1  0
 21 23  2  0
 19  3  1  0
 18 12  1  0
M  END
>  <assay_description>  (116) 
Inhibition of human BSEP expressed in baculovirus transfected fall armyworm Sf21 cell membranes vesicles assessed as reduction in ATP-dependent [3H]-taurocholate transport into vesicles incubated for 5 mins by Topcount based rapid filtration method

>  <molecule_pref_name>  (116) 
LONAPALENE

>  <canonical_smiles>  (116) 
COc1c(OC)c(OC(C)=O)c2cc(Cl)ccc2c1OC(C)=O

>  <pchembl_value>  (116) 
4.84

>  <standard_type>  (116) 
IC50

>  <standard_relation>  (116) 
=

>  <standard_value>  (116) 
14390.0

>  <standard_units>  (116) 
nM

>  <target_pref_name>  (116) 
Bile salt export pump

>  <target_organism>  (116) 
Homo sapiens

$$$$
CHEMBL157101
     RDKit          2D

 36 40  0  0  0  0  0  0  0  0999 V2000
    3.7500   -1.2990    0.0000 C   0  0  0  0  0  0  0  0  0  0  0  0
    3.0000    0.0000    0.0000 C   0  0  0  0  0  0  0  0  0  0  0  0
    3.7500    1.2990    0.0000 O   0  0  0  0  0  0  0  0  0  0  0  0
    1.5000    0.0000    0.0000 N   0  0  0  0  0  0  0  0  0  0  0  0
    0.7500   -1.2990    0.0000 C   0  0  0  0  0  0  0  0  0  0  0  0
   -0.7500   -1.2990    0.0000 C   0  0  0  0  0  0  0  0  0  0  0  0
   -1.5000    0.0000    0.0000 N   0  0  0  0  0  0  0  0  0  0  0  0
   -3.0000    0.0000    0.0000 C   0  0  0  0  0  0  0  0  0  0  0  0
   -3.7500    1.2990    0.0000 C   0  0  0  0  0  0  0  0  0  0  0  0
   -5.2500    1.2990    0.0000 C   0  0  0  0  0  0  0  0  0  0  0  0
   -6.0000    0.0000    0.0000 C   0  0  0  0  0  0  0  0  0  0  0  0
   -7.5000    0.0000    0.0000 O   0  0  0  0  0  0  0  0  0  0  0  0
   -8.2500    1.2990    0.0000 C   0  0  0  0  0  0  0  0  0  0  0  0
   -9.7500    1.2990    0.0000 C   0  0  0  0  0  0  0  0  0  0  0  0
  -10.6317    0.0855    0.0000 C   0  0  0  0  0  0  0  0  0  0  0  0
  -12.0583    0.5490    0.0000 O   0  0  0  0  0  0  0  0  0  0  0  0
  -12.0583    2.0490    0.0000 C   0  0  0  0  0  0  0  0  0  0  0  0
  -12.3701    3.5163    0.0000 C   0  0  0  0  0  0  0  0  0  0  0  0
  -11.2554    4.5200    0.0000 N   0  0  0  0  0  0  0  0  0  0  0  0
  -11.4122    6.0117    0.0000 C   0  0  0  0  0  0  0  0  0  0  0  0
  -10.0419    6.6218    0.0000 C   0  0  0  0  0  0  0  0  0  0  0  0
   -9.0382    5.5071    0.0000 N   0  0  0  0  0  0  0  0  0  0  0  0
   -9.7882    4.2081    0.0000 C   0  0  0  0  0  0  0  0  0  0  0  0
  -13.5500    1.8922    0.0000 C   0  0  0  0  0  0  0  0  0  0  0  0
  -14.4317    3.1058    0.0000 C   0  0  0  0  0  0  0  0  0  0  0  0
  -15.9235    2.9490    0.0000 C   0  0  0  0  0  0  0  0  0  0  0  0
  -16.5336    1.5787    0.0000 C   0  0  0  0  0  0  0  0  0  0  0  0
  -18.0254    1.4219    0.0000 Cl  0  0  0  0  0  0  0  0  0  0  0  0
  -15.6519    0.3651    0.0000 C   0  0  0  0  0  0  0  0  0  0  0  0
  -14.1602    0.5219    0.0000 C   0  0  0  0  0  0  0  0  0  0  0  0
  -13.2785   -0.6916    0.0000 Cl  0  0  0  0  0  0  0  0  0  0  0  0
  -10.6317    2.5126    0.0000 O   0  0  0  0  0  0  0  0  0  0  0  0
   -5.2500   -1.2990    0.0000 C   0  0  0  0  0  0  0  0  0  0  0  0
   -3.7500   -1.2990    0.0000 C   0  0  0  0  0  0  0  0  0  0  0  0
   -0.7500    1.2990    0.0000 C   0  0  0  0  0  0  0  0  0  0  0  0
    0.7500    1.2990    0.0000 C   0  0  0  0  0  0  0  0  0  0  0  0
  1  2  1  0
  2  3  2  0
  2  4  1  0
  4  5  1  0
  5  6  1  0
  6  7  1  0
  7  8  1  0
  8  9  2  0
  9 10  1  0
 10 11  2  0
 11 12  1  0
 12 13  1  0
 13 14  1  0
 14 15  1  0
 15 16  1  0
 16 17  1  0
 17 18  1  0
 18 19  1  0
 19 20  1  0
 20 21  2  0
 21 22  1  0
 22 23  2  0
 17 24  1  0
 24 25  2  0
 25 26  1  0
 26 27  2  0
 27 28  1  0
 27 29  1  0
 29 30  2  0
 30 31  1  0
 17 32  1  0
 11 33  1  0
 33 34  2  0
  7 35  1  0
 35 36  1  0
 36  4  1  0
 34  8  1  0
 32 14  1  0
 23 19  1  0
 30 24  1  0
M  END
>  <assay_description>  (117) 
Inhibition of human BSEP expressed in baculovirus transfected fall armyworm Sf21 cell membranes vesicles assessed as reduction in ATP-dependent [3H]-taurocholate transport into vesicles incubated for 5 mins by Topcount based rapid filtration method

>  <molecule_pref_name>  (117) 
KETOCONAZOLE

>  <canonical_smiles>  (117) 
CC(=O)N1CCN(c2ccc(OCC3COC(Cn4ccnc4)(c4ccc(Cl)cc4Cl)O3)cc2)CC1

>  <pchembl_value>  (117) 
5.39

>  <standard_type>  (117) 
IC50

>  <standard_relation>  (117) 
=

>  <standard_value>  (117) 
4100.0

>  <standard_units>  (117) 
nM

>  <target_pref_name>  (117) 
Bile salt export pump

>  <target_organism>  (117) 
Homo sapiens

$$$$
CHEMBL8412
     RDKit          2D

 28 31  0  0  0  0  0  0  0  0999 V2000
    2.6401   -3.1891    0.0000 O   0  0  0  0  0  0  0  0  0  0  0  0
    1.2135   -2.7256    0.0000 C   0  0  0  0  0  0  0  0  0  0  0  0
    0.7500   -1.2990    0.0000 C   0  0  0  0  0  0  0  0  0  0  0  0
    1.5000    0.0000    0.0000 C   0  0  0  0  0  0  0  0  0  0  0  0
    0.7500    1.2990    0.0000 C   0  0  0  0  0  0  0  0  0  0  0  0
   -0.7500    1.2990    0.0000 C   0  0  0  0  0  0  0  0  0  0  0  0
   -1.5000    0.0000    0.0000 C   0  0  0  0  0  0  0  0  0  0  0  0
   -0.7500   -1.2990    0.0000 C   0  0  0  0  0  0  0  0  0  0  0  0
   -1.2135   -2.7256    0.0000 S   0  0  0  0  0  0  0  0  0  0  0  0
   -1.9635   -4.0247    0.0000 O   0  0  0  0  0  0  0  0  0  0  0  0
   -2.5838   -2.1155    0.0000 O   0  0  0  0  0  0  0  0  0  0  0  0
   -0.0000   -3.6073    0.0000 N   0  0  0  0  0  0  0  0  0  0  0  0
   -0.0000   -5.1073    0.0000 C   0  0  0  0  0  0  0  0  0  0  0  0
   -1.2990   -5.8573    0.0000 C   0  0  0  0  0  0  0  0  0  0  0  0
   -1.2990   -7.3573    0.0000 C   0  0  0  0  0  0  0  0  0  0  0  0
   -2.5981   -8.1073    0.0000 C   0  0  0  0  0  0  0  0  0  0  0  0
   -2.5981   -9.6073    0.0000 N   0  0  0  0  0  0  0  0  0  0  0  0
   -3.8971  -10.3573    0.0000 C   0  0  0  0  0  0  0  0  0  0  0  0
   -3.8971  -11.8573    0.0000 C   0  0  0  0  0  0  0  0  0  0  0  0
   -2.5981  -12.6073    0.0000 N   0  0  0  0  0  0  0  0  0  0  0  0
   -2.5981  -14.1073    0.0000 C   0  0  0  0  0  0  0  0  0  0  0  0
   -3.8971  -14.8573    0.0000 N   0  0  0  0  0  0  0  0  0  0  0  0
   -3.8971  -16.3573    0.0000 C   0  0  0  0  0  0  0  0  0  0  0  0
   -2.5981  -17.1073    0.0000 C   0  0  0  0  0  0  0  0  0  0  0  0
   -1.2990  -16.3573    0.0000 C   0  0  0  0  0  0  0  0  0  0  0  0
   -1.2990  -14.8573    0.0000 N   0  0  0  0  0  0  0  0  0  0  0  0
   -1.2990  -11.8573    0.0000 C   0  0  0  0  0  0  0  0  0  0  0  0
   -1.2990  -10.3573    0.0000 C   0  0  0  0  0  0  0  0  0  0  0  0
  1  2  2  0
  2  3  1  0
  3  4  2  0
  4  5  1  0
  5  6  2  0
  6  7  1  0
  7  8  2  0
  8  9  1  0
  9 10  2  0
  9 11  2  0
  9 12  1  0
 12 13  1  0
 13 14  1  0
 14 15  1  0
 15 16  1  0
 16 17  1  0
 17 18  1  0
 18 19  1  0
 19 20  1  0
 20 21  1  0
 21 22  2  0
 22 23  1  0
 23 24  2  0
 24 25  1  0
 25 26  2  0
 20 27  1  0
 27 28  1  0
 12  2  1  0
 28 17  1  0
  8  3  1  0
 26 21  1  0
M  END
>  <assay_description>  (118) 
Inhibition of human BSEP expressed in baculovirus transfected fall armyworm Sf21 cell membranes vesicles assessed as reduction in ATP-dependent [3H]-taurocholate transport into vesicles incubated for 5 mins by Topcount based rapid filtration method

>  <molecule_pref_name>  (118) 
IPSAPIRONE

>  <canonical_smiles>  (118) 
O=C1c2ccccc2S(=O)(=O)N1CCCCN1CCN(c2ncccn2)CC1

>  <pchembl_value>  (118) 
4.51

>  <standard_type>  (118) 
IC50

>  <standard_relation>  (118) 
=

>  <standard_value>  (118) 
31170.0

>  <standard_units>  (118) 
nM

>  <target_pref_name>  (118) 
Bile salt export pump

>  <target_organism>  (118) 
Homo sapiens

$$$$
CHEMBL6
     RDKit          2D

 25 27  0  0  0  0  0  0  0  0999 V2000
    3.7500   -1.2990    0.0000 C   0  0  0  0  0  0  0  0  0  0  0  0
    3.0000    0.0000    0.0000 O   0  0  0  0  0  0  0  0  0  0  0  0
    1.5000    0.0000    0.0000 C   0  0  0  0  0  0  0  0  0  0  0  0
    0.7500   -1.2990    0.0000 C   0  0  0  0  0  0  0  0  0  0  0  0
   -0.7500   -1.2990    0.0000 C   0  0  0  0  0  0  0  0  0  0  0  0
   -1.5000    0.0000    0.0000 C   0  0  0  0  0  0  0  0  0  0  0  0
   -0.7500    1.2990    0.0000 C   0  0  0  0  0  0  0  0  0  0  0  0
    0.7500    1.2990    0.0000 C   0  0  0  0  0  0  0  0  0  0  0  0
   -1.7537    2.4138    0.0000 C   0  0  0  0  0  0  0  0  0  0  0  0
   -1.4418    3.8810    0.0000 C   0  0  0  0  0  0  0  0  0  0  0  0
   -2.5565    4.8847    0.0000 C   0  0  0  0  0  0  0  0  0  0  0  0
   -3.9831    4.4211    0.0000 O   0  0  0  0  0  0  0  0  0  0  0  0
   -2.2447    6.3519    0.0000 O   0  0  0  0  0  0  0  0  0  0  0  0
   -3.1240    1.8037    0.0000 C   0  0  0  0  0  0  0  0  0  0  0  0
   -4.4231    2.5537    0.0000 C   0  0  0  0  0  0  0  0  0  0  0  0
   -2.9672    0.3119    0.0000 N   0  0  0  0  0  0  0  0  0  0  0  0
   -4.0819   -0.6918    0.0000 C   0  0  0  0  0  0  0  0  0  0  0  0
   -3.7701   -2.1590    0.0000 O   0  0  0  0  0  0  0  0  0  0  0  0
   -5.5085   -0.2283    0.0000 C   0  0  0  0  0  0  0  0  0  0  0  0
   -5.8204    1.2389    0.0000 C   0  0  0  0  0  0  0  0  0  0  0  0
   -7.2470    1.7024    0.0000 C   0  0  0  0  0  0  0  0  0  0  0  0
   -8.3617    0.6987    0.0000 C   0  0  0  0  0  0  0  0  0  0  0  0
   -9.7883    1.1623    0.0000 Cl  0  0  0  0  0  0  0  0  0  0  0  0
   -8.0498   -0.7685    0.0000 C   0  0  0  0  0  0  0  0  0  0  0  0
   -6.6232   -1.2320    0.0000 C   0  0  0  0  0  0  0  0  0  0  0  0
  1  2  1  0
  2  3  1  0
  3  4  2  0
  4  5  1  0
  5  6  2  0
  6  7  1  0
  7  8  2  0
  7  9  1  0
  9 10  1  0
 10 11  1  0
 11 12  2  0
 11 13  1  0
  9 14  2  0
 14 15  1  0
 14 16  1  0
 16 17  1  0
 17 18  2  0
 17 19  1  0
 19 20  2  0
 20 21  1  0
 21 22  2  0
 22 23  1  0
 22 24  1  0
 24 25  2  0
  8  3  1  0
 25 19  1  0
 16  6  1  0
M  END
>  <assay_description>  (119) 
Inhibition of human BSEP expressed in baculovirus transfected fall armyworm Sf21 cell membranes vesicles assessed as reduction in ATP-dependent [3H]-taurocholate transport into vesicles incubated for 5 mins by Topcount based rapid filtration method

>  <molecule_pref_name>  (119) 
INDOMETHACIN

>  <canonical_smiles>  (119) 
COc1ccc2c(c1)c(CC(=O)O)c(C)n2C(=O)c1ccc(Cl)cc1

>  <pchembl_value>  (119) 
4.31

>  <standard_type>  (119) 
IC50

>  <standard_relation>  (119) 
=

>  <standard_value>  (119) 
49320.0

>  <standard_units>  (119) 
nM

>  <target_pref_name>  (119) 
Bile salt export pump

>  <target_organism>  (119) 
Homo sapiens

$$$$
CHEMBL347695
     RDKit          2D

 18 20  0  0  0  0  0  0  0  0999 V2000
   -4.4218   -1.4413    0.0000 C   0  0  0  0  0  0  0  0  0  0  0  0
   -3.4182   -2.5560    0.0000 C   0  0  0  0  0  0  0  0  0  0  0  0
   -3.8817   -3.9826    0.0000 N   0  0  0  0  0  0  0  0  0  0  0  0
   -5.3083   -4.4462    0.0000 C   0  0  0  0  0  0  0  0  0  0  0  0
   -5.3083   -5.9462    0.0000 C   0  0  0  0  0  0  0  0  0  0  0  0
   -3.8817   -6.4097    0.0000 N   0  0  0  0  0  0  0  0  0  0  0  0
   -3.0000   -5.1962    0.0000 C   0  0  0  0  0  0  0  0  0  0  0  0
   -1.5000   -5.1962    0.0000 C   0  0  0  0  0  0  0  0  0  0  0  0
   -0.7500   -3.8971    0.0000 C   0  0  0  0  0  0  0  0  0  0  0  0
    0.7500   -3.8971    0.0000 C   0  0  0  0  0  0  0  0  0  0  0  0
    1.5000   -2.5981    0.0000 O   0  0  0  0  0  0  0  0  0  0  0  0
    0.7500   -1.2990    0.0000 C   0  0  0  0  0  0  0  0  0  0  0  0
    1.5000    0.0000    0.0000 C   0  0  0  0  0  0  0  0  0  0  0  0
    0.7500    1.2990    0.0000 C   0  0  0  0  0  0  0  0  0  0  0  0
   -0.7500    1.2990    0.0000 C   0  0  0  0  0  0  0  0  0  0  0  0
   -1.5000    0.0000    0.0000 C   0  0  0  0  0  0  0  0  0  0  0  0
   -0.7500   -1.2990    0.0000 C   0  0  0  0  0  0  0  0  0  0  0  0
   -1.5000   -2.5981    0.0000 O   0  0  0  0  0  0  0  0  0  0  0  0
  1  2  1  0
  2  3  1  0
  3  4  1  0
  4  5  2  0
  5  6  1  0
  6  7  2  0
  7  8  1  0
  8  9  1  0
  9 10  1  0
 10 11  1  0
 11 12  1  0
 12 13  2  0
 13 14  1  0
 14 15  2  0
 15 16  1  0
 16 17  2  0
 17 18  1  0
  7  3  1  0
 18  9  1  0
 17 12  1  0
M  END
>  <assay_description>  (120) 
Inhibition of human BSEP expressed in baculovirus transfected fall armyworm Sf21 cell membranes vesicles assessed as reduction in ATP-dependent [3H]-taurocholate transport into vesicles incubated for 5 mins by Topcount based rapid filtration method

>  <molecule_pref_name>  (120) 
IMILOXAN

>  <canonical_smiles>  (120) 
CCn1ccnc1CC1COc2ccccc2O1

>  <pchembl_value>  (120) 
4.21

>  <standard_type>  (120) 
IC50

>  <standard_relation>  (120) 
=

>  <standard_value>  (120) 
61650.0

>  <standard_units>  (120) 
nM

>  <target_pref_name>  (120) 
Bile salt export pump

>  <target_organism>  (120) 
Homo sapiens

$$$$
CHEMBL896
     RDKit          2D

 26 28  0  0  0  0  0  0  0  0999 V2000
    8.2500   -3.8971    0.0000 O   0  0  0  0  0  0  0  0  0  0  0  0
    7.5000   -2.5981    0.0000 C   0  0  0  0  0  0  0  0  0  0  0  0
    6.0000   -2.5981    0.0000 C   0  0  0  0  0  0  0  0  0  0  0  0
    5.2500   -1.2990    0.0000 O   0  0  0  0  0  0  0  0  0  0  0  0
    3.7500   -1.2990    0.0000 C   0  0  0  0  0  0  0  0  0  0  0  0
    3.0000    0.0000    0.0000 C   0  0  0  0  0  0  0  0  0  0  0  0
    1.5000    0.0000    0.0000 N   0  0  0  0  0  0  0  0  0  0  0  0
    0.7500   -1.2990    0.0000 C   0  0  0  0  0  0  0  0  0  0  0  0
   -0.7500   -1.2990    0.0000 C   0  0  0  0  0  0  0  0  0  0  0  0
   -1.5000    0.0000    0.0000 N   0  0  0  0  0  0  0  0  0  0  0  0
   -3.0000    0.0000    0.0000 C   0  0  0  0  0  0  0  0  0  0  0  0
   -3.7500    1.2990    0.0000 C   0  0  0  0  0  0  0  0  0  0  0  0
   -3.0000    2.5981    0.0000 C   0  0  0  0  0  0  0  0  0  0  0  0
   -3.7500    3.8971    0.0000 C   0  0  0  0  0  0  0  0  0  0  0  0
   -5.2500    3.8971    0.0000 C   0  0  0  0  0  0  0  0  0  0  0  0
   -6.0000    2.5981    0.0000 C   0  0  0  0  0  0  0  0  0  0  0  0
   -5.2500    1.2990    0.0000 C   0  0  0  0  0  0  0  0  0  0  0  0
   -3.7500   -1.2990    0.0000 C   0  0  0  0  0  0  0  0  0  0  0  0
   -5.2500   -1.2990    0.0000 C   0  0  0  0  0  0  0  0  0  0  0  0
   -6.0000   -2.5981    0.0000 C   0  0  0  0  0  0  0  0  0  0  0  0
   -5.2500   -3.8971    0.0000 C   0  0  0  0  0  0  0  0  0  0  0  0
   -6.0000   -5.1962    0.0000 Cl  0  0  0  0  0  0  0  0  0  0  0  0
   -3.7500   -3.8971    0.0000 C   0  0  0  0  0  0  0  0  0  0  0  0
   -3.0000   -2.5981    0.0000 C   0  0  0  0  0  0  0  0  0  0  0  0
   -0.7500    1.2990    0.0000 C   0  0  0  0  0  0  0  0  0  0  0  0
    0.7500    1.2990    0.0000 C   0  0  0  0  0  0  0  0  0  0  0  0
  1  2  1  0
  2  3  1  0
  3  4  1  0
  4  5  1  0
  5  6  1  0
  6  7  1  0
  7  8  1  0
  8  9  1  0
  9 10  1  0
 10 11  1  0
 11 12  1  0
 12 13  2  0
 13 14  1  0
 14 15  2  0
 15 16  1  0
 16 17  2  0
 11 18  1  0
 18 19  2  0
 19 20  1  0
 20 21  2  0
 21 22  1  0
 21 23  1  0
 23 24  2  0
 10 25  1  0
 25 26  1  0
 26  7  1  0
 17 12  1  0
 24 18  1  0
M  END
>  <assay_description>  (121) 
Inhibition of human BSEP expressed in baculovirus transfected fall armyworm Sf21 cell membranes vesicles assessed as reduction in ATP-dependent [3H]-taurocholate transport into vesicles incubated for 5 mins by Topcount based rapid filtration method

>  <molecule_pref_name>  (121) 
HYDROXYZINE

>  <canonical_smiles>  (121) 
OCCOCCN1CCN(C(c2ccccc2)c2ccc(Cl)cc2)CC1

>  <pchembl_value>  (121) 
4.14

>  <standard_type>  (121) 
IC50

>  <standard_relation>  (121) 
=

>  <standard_value>  (121) 
72910.0

>  <standard_units>  (121) 
nM

>  <target_pref_name>  (121) 
Bile salt export pump

>  <target_organism>  (121) 
Homo sapiens

$$$$
CHEMBL22077
     RDKit          2D

 25 27  0  0  0  0  0  0  0  0999 V2000
   -8.2500   -9.0933    0.0000 C   0  0  0  0  0  0  0  0  0  0  0  0
   -7.5000   -7.7942    0.0000 C   0  0  0  0  0  0  0  0  0  0  0  0
   -6.0000   -7.7942    0.0000 N   0  0  0  0  0  0  0  0  0  0  0  0
   -5.2500   -9.0933    0.0000 C   0  0  0  0  0  0  0  0  0  0  0  0
   -6.0000  -10.3923    0.0000 C   0  0  0  0  0  0  0  0  0  0  0  0
   -5.2500   -6.4952    0.0000 C   0  0  0  0  0  0  0  0  0  0  0  0
   -3.7500   -6.4952    0.0000 C   0  0  0  0  0  0  0  0  0  0  0  0
   -3.0000   -5.1962    0.0000 N   0  0  0  0  0  0  0  0  0  0  0  0
   -1.5000   -5.1962    0.0000 C   0  0  0  0  0  0  0  0  0  0  0  0
   -0.7500   -6.4952    0.0000 C   0  0  0  0  0  0  0  0  0  0  0  0
    0.7500   -6.4952    0.0000 C   0  0  0  0  0  0  0  0  0  0  0  0
    1.5000   -5.1962    0.0000 C   0  0  0  0  0  0  0  0  0  0  0  0
    3.0000   -5.1962    0.0000 C   0  0  0  0  0  0  0  0  0  0  0  0
    3.7500   -6.4952    0.0000 O   0  0  0  0  0  0  0  0  0  0  0  0
    0.7500   -3.8971    0.0000 C   0  0  0  0  0  0  0  0  0  0  0  0
    1.5000   -2.5981    0.0000 S   0  0  0  0  0  0  0  0  0  0  0  0
    0.7500   -1.2990    0.0000 C   0  0  0  0  0  0  0  0  0  0  0  0
    1.5000    0.0000    0.0000 C   0  0  0  0  0  0  0  0  0  0  0  0
    0.7500    1.2990    0.0000 C   0  0  0  0  0  0  0  0  0  0  0  0
   -0.7500    1.2990    0.0000 C   0  0  0  0  0  0  0  0  0  0  0  0
   -1.5000    0.0000    0.0000 C   0  0  0  0  0  0  0  0  0  0  0  0
   -0.7500   -1.2990    0.0000 C   0  0  0  0  0  0  0  0  0  0  0  0
   -1.5000   -2.5981    0.0000 C   0  0  0  0  0  0  0  0  0  0  0  0
   -3.0000   -2.5981    0.0000 O   0  0  0  0  0  0  0  0  0  0  0  0
   -0.7500   -3.8971    0.0000 C   0  0  0  0  0  0  0  0  0  0  0  0
  1  2  1  0
  2  3  1  0
  3  4  1  0
  4  5  1  0
  3  6  1  0
  6  7  1  0
  7  8  1  0
  8  9  1  0
  9 10  2  0
 10 11  1  0
 11 12  2  0
 12 13  1  0
 13 14  1  0
 12 15  1  0
 15 16  1  0
 16 17  1  0
 17 18  2  0
 18 19  1  0
 19 20  2  0
 20 21  1  0
 21 22  2  0
 22 23  1  0
 23 24  2  0
 23 25  1  0
 25  9  1  0
 25 15  2  0
 22 17  1  0
M  END
>  <assay_description>  (122) 
Inhibition of human BSEP expressed in baculovirus transfected fall armyworm Sf21 cell membranes vesicles assessed as reduction in ATP-dependent [3H]-taurocholate transport into vesicles incubated for 5 mins by Topcount based rapid filtration method

>  <molecule_pref_name>  (122) 
HYCANTHONE

>  <canonical_smiles>  (122) 
CCN(CC)CCNc1ccc(CO)c2sc3ccccc3c(=O)c12

>  <pchembl_value>  (122) 
4.53

>  <standard_type>  (122) 
IC50

>  <standard_relation>  (122) 
=

>  <standard_value>  (122) 
29800.0

>  <standard_units>  (122) 
nM

>  <target_pref_name>  (122) 
Bile salt export pump

>  <target_organism>  (122) 
Homo sapiens

$$$$
CHEMBL54
     RDKit          2D

 26 28  0  0  0  0  0  0  0  0999 V2000
   -0.7500   -6.4952    0.0000 O   0  0  0  0  0  0  0  0  0  0  0  0
    0.7500   -6.4952    0.0000 C   0  0  0  0  0  0  0  0  0  0  0  0
    1.5000   -5.1962    0.0000 C   0  0  0  0  0  0  0  0  0  0  0  0
    0.7500   -3.8971    0.0000 C   0  0  0  0  0  0  0  0  0  0  0  0
    1.5000   -2.5981    0.0000 C   0  0  0  0  0  0  0  0  0  0  0  0
    0.7500   -1.2990    0.0000 N   0  0  0  0  0  0  0  0  0  0  0  0
    1.5000    0.0000    0.0000 C   0  0  0  0  0  0  0  0  0  0  0  0
    0.7500    1.2990    0.0000 C   0  0  0  0  0  0  0  0  0  0  0  0
   -0.7500    1.2990    0.0000 C   0  0  0  0  0  0  0  0  0  0  0  0
   -0.4895    2.7762    0.0000 O   0  0  0  0  0  0  0  0  0  0  0  0
   -2.1595    1.8121    0.0000 C   0  0  0  0  0  0  0  0  0  0  0  0
   -2.4200    3.2893    0.0000 C   0  0  0  0  0  0  0  0  0  0  0  0
   -3.8296    3.8023    0.0000 C   0  0  0  0  0  0  0  0  0  0  0  0
   -4.9786    2.8381    0.0000 C   0  0  0  0  0  0  0  0  0  0  0  0
   -6.3882    3.3512    0.0000 Cl  0  0  0  0  0  0  0  0  0  0  0  0
   -4.7181    1.3609    0.0000 C   0  0  0  0  0  0  0  0  0  0  0  0
   -3.3086    0.8479    0.0000 C   0  0  0  0  0  0  0  0  0  0  0  0
   -1.5000    0.0000    0.0000 C   0  0  0  0  0  0  0  0  0  0  0  0
   -0.7500   -1.2990    0.0000 C   0  0  0  0  0  0  0  0  0  0  0  0
    1.5000   -7.7942    0.0000 C   0  0  0  0  0  0  0  0  0  0  0  0
    0.7500   -9.0933    0.0000 C   0  0  0  0  0  0  0  0  0  0  0  0
    1.5000  -10.3923    0.0000 C   0  0  0  0  0  0  0  0  0  0  0  0
    3.0000  -10.3923    0.0000 C   0  0  0  0  0  0  0  0  0  0  0  0
    3.7500  -11.6913    0.0000 F   0  0  0  0  0  0  0  0  0  0  0  0
    3.7500   -9.0933    0.0000 C   0  0  0  0  0  0  0  0  0  0  0  0
    3.0000   -7.7942    0.0000 C   0  0  0  0  0  0  0  0  0  0  0  0
  1  2  2  0
  2  3  1  0
  3  4  1  0
  4  5  1  0
  5  6  1  0
  6  7  1  0
  7  8  1  0
  8  9  1  0
  9 10  1  0
  9 11  1  0
 11 12  2  0
 12 13  1  0
 13 14  2  0
 14 15  1  0
 14 16  1  0
 16 17  2  0
  9 18  1  0
 18 19  1  0
  2 20  1  0
 20 21  2  0
 21 22  1  0
 22 23  2  0
 23 24  1  0
 23 25  1  0
 25 26  2  0
 19  6  1  0
 26 20  1  0
 17 11  1  0
M  END
>  <assay_description>  (123) 
Inhibition of human BSEP expressed in baculovirus transfected fall armyworm Sf21 cell membranes vesicles assessed as reduction in ATP-dependent [3H]-taurocholate transport into vesicles incubated for 5 mins by Topcount based rapid filtration method

>  <molecule_pref_name>  (123) 
HALOPERIDOL

>  <canonical_smiles>  (123) 
O=C(CCCN1CCC(O)(c2ccc(Cl)cc2)CC1)c1ccc(F)cc1

>  <pchembl_value>  (123) 
4.64

>  <standard_type>  (123) 
IC50

>  <standard_relation>  (123) 
=

>  <standard_value>  (123) 
22760.0

>  <standard_units>  (123) 
nM

>  <target_pref_name>  (123) 
Bile salt export pump

>  <target_organism>  (123) 
Homo sapiens

$$$$
CHEMBL806
     RDKit          2D

 19 19  0  0  0  0  0  0  0  0999 V2000
    6.0000   -2.5981    0.0000 C   0  0  0  0  0  0  0  0  0  0  0  0
    5.2500   -1.2990    0.0000 C   0  0  0  0  0  0  0  0  0  0  0  0
    6.0000    0.0000    0.0000 C   0  0  0  0  0  0  0  0  0  0  0  0
    3.7500   -1.2990    0.0000 C   0  0  0  0  0  0  0  0  0  0  0  0
    3.0000   -2.5981    0.0000 O   0  0  0  0  0  0  0  0  0  0  0  0
    3.0000    0.0000    0.0000 N   0  0  0  0  0  0  0  0  0  0  0  0
    1.5000    0.0000    0.0000 C   0  0  0  0  0  0  0  0  0  0  0  0
    0.7500   -1.2990    0.0000 C   0  0  0  0  0  0  0  0  0  0  0  0
   -0.7500   -1.2990    0.0000 C   0  0  0  0  0  0  0  0  0  0  0  0
   -1.5000    0.0000    0.0000 C   0  0  0  0  0  0  0  0  0  0  0  0
   -3.0000    0.0000    0.0000 N   0  0  0  0  0  4  0  0  0  0  0  0
   -3.7500    1.2990    0.0000 O   0  0  0  0  0  0  0  0  0  0  0  0
   -3.7500   -1.2990    0.0000 O   0  0  0  0  0  1  0  0  0  0  0  0
   -0.7500    1.2990    0.0000 C   0  0  0  0  0  0  0  0  0  0  0  0
   -1.5000    2.5981    0.0000 C   0  0  0  0  0  0  0  0  0  0  0  0
   -2.2500    3.8971    0.0000 F   0  0  0  0  0  0  0  0  0  0  0  0
   -0.2010    3.3481    0.0000 F   0  0  0  0  0  0  0  0  0  0  0  0
   -2.7990    1.8481    0.0000 F   0  0  0  0  0  0  0  0  0  0  0  0
    0.7500    1.2990    0.0000 C   0  0  0  0  0  0  0  0  0  0  0  0
  1  2  1  0
  2  3  1  0
  2  4  1  0
  4  5  2  0
  4  6  1  0
  6  7  1  0
  7  8  2  0
  8  9  1  0
  9 10  2  0
 10 11  1  0
 11 12  2  0
 11 13  1  0
 10 14  1  0
 14 15  1  0
 15 16  1  0
 15 17  1  0
 15 18  1  0
 14 19  2  0
 19  7  1  0
M  CHG  2  11   1  13  -1
M  END
>  <assay_description>  (124) 
Inhibition of human BSEP expressed in baculovirus transfected fall armyworm Sf21 cell membranes vesicles assessed as reduction in ATP-dependent [3H]-taurocholate transport into vesicles incubated for 5 mins by Topcount based rapid filtration method

>  <molecule_pref_name>  (124) 
FLUTAMIDE

>  <canonical_smiles>  (124) 
CC(C)C(=O)Nc1ccc([N+](=O)[O-])c(C(F)(F)F)c1

>  <pchembl_value>  (124) 
4.22

>  <standard_type>  (124) 
IC50

>  <standard_relation>  (124) 
=

>  <standard_value>  (124) 
60780.0

>  <standard_units>  (124) 
nM

>  <target_pref_name>  (124) 
Bile salt export pump

>  <target_organism>  (124) 
Homo sapiens

$$$$
CHEMBL726
     RDKit          2D

 30 33  0  0  0  0  0  0  0  0999 V2000
    8.2500  -11.6913    0.0000 O   0  0  0  0  0  0  0  0  0  0  0  0
    7.5000  -10.3923    0.0000 C   0  0  0  0  0  0  0  0  0  0  0  0
    8.2500   -9.0933    0.0000 C   0  0  0  0  0  0  0  0  0  0  0  0
    7.5000   -7.7942    0.0000 N   0  0  0  0  0  0  0  0  0  0  0  0
    6.0000   -7.7942    0.0000 C   0  0  0  0  0  0  0  0  0  0  0  0
    5.2500   -6.4952    0.0000 C   0  0  0  0  0  0  0  0  0  0  0  0
    6.0000   -5.1962    0.0000 N   0  0  0  0  0  0  0  0  0  0  0  0
    5.2500   -3.8971    0.0000 C   0  0  0  0  0  0  0  0  0  0  0  0
    3.7500   -3.8971    0.0000 C   0  0  0  0  0  0  0  0  0  0  0  0
    3.0000   -2.5981    0.0000 C   0  0  0  0  0  0  0  0  0  0  0  0
    1.5000   -2.5981    0.0000 N   0  0  0  0  0  0  0  0  0  0  0  0
    0.7500   -1.2990    0.0000 C   0  0  0  0  0  0  0  0  0  0  0  0
    1.5000    0.0000    0.0000 C   0  0  0  0  0  0  0  0  0  0  0  0
    0.7500    1.2990    0.0000 C   0  0  0  0  0  0  0  0  0  0  0  0
   -0.7500    1.2990    0.0000 C   0  0  0  0  0  0  0  0  0  0  0  0
   -1.5000    0.0000    0.0000 C   0  0  0  0  0  0  0  0  0  0  0  0
   -0.7500   -1.2990    0.0000 C   0  0  0  0  0  0  0  0  0  0  0  0
   -1.5000   -2.5981    0.0000 S   0  0  0  0  0  0  0  0  0  0  0  0
   -0.7500   -3.8971    0.0000 C   0  0  0  0  0  0  0  0  0  0  0  0
   -1.5000   -5.1962    0.0000 C   0  0  0  0  0  0  0  0  0  0  0  0
   -0.7500   -6.4952    0.0000 C   0  0  0  0  0  0  0  0  0  0  0  0
    0.7500   -6.4952    0.0000 C   0  0  0  0  0  0  0  0  0  0  0  0
    1.5000   -7.7942    0.0000 C   0  0  0  0  0  0  0  0  0  0  0  0
    2.2500   -9.0933    0.0000 F   0  0  0  0  0  0  0  0  0  0  0  0
    0.2010   -8.5442    0.0000 F   0  0  0  0  0  0  0  0  0  0  0  0
    2.7990   -7.0442    0.0000 F   0  0  0  0  0  0  0  0  0  0  0  0
    1.5000   -5.1962    0.0000 C   0  0  0  0  0  0  0  0  0  0  0  0
    0.7500   -3.8971    0.0000 C   0  0  0  0  0  0  0  0  0  0  0  0
    7.5000   -5.1962    0.0000 C   0  0  0  0  0  0  0  0  0  0  0  0
    8.2500   -6.4952    0.0000 C   0  0  0  0  0  0  0  0  0  0  0  0
  1  2  1  0
  2  3  1  0
  3  4  1  0
  4  5  1  0
  5  6  1  0
  6  7  1  0
  7  8  1  0
  8  9  1  0
  9 10  1  0
 10 11  1  0
 11 12  1  0
 12 13  2  0
 13 14  1  0
 14 15  2  0
 15 16  1  0
 16 17  2  0
 17 18  1  0
 18 19  1  0
 19 20  2  0
 20 21  1  0
 21 22  2  0
 22 23  1  0
 23 24  1  0
 23 25  1  0
 23 26  1  0
 22 27  1  0
 27 28  2  0
  7 29  1  0
 29 30  1  0
 30  4  1  0
 28 11  1  0
 17 12  1  0
 28 19  1  0
M  END
>  <assay_description>  (125) 
Inhibition of human BSEP expressed in baculovirus transfected fall armyworm Sf21 cell membranes vesicles assessed as reduction in ATP-dependent [3H]-taurocholate transport into vesicles incubated for 5 mins by Topcount based rapid filtration method

>  <molecule_pref_name>  (125) 
FLUPHENAZINE

>  <canonical_smiles>  (125) 
OCCN1CCN(CCCN2c3ccccc3Sc3ccc(C(F)(F)F)cc32)CC1

>  <pchembl_value>  (125) 
4.59

>  <standard_type>  (125) 
IC50

>  <standard_relation>  (125) 
=

>  <standard_value>  (125) 
25820.0

>  <standard_units>  (125) 
nM

>  <target_pref_name>  (125) 
Bile salt export pump

>  <target_organism>  (125) 
Homo sapiens

$$$$
CHEMBL1201392
     RDKit          2D

 29 32  0  0  0  0  0  0  0  0999 V2000
   -2.2500   -9.0044    0.0000 C   0  0  0  0  0  0  0  0  0  0  0  0
   -2.2500   -7.5044    0.0000 C   0  0  0  0  0  0  0  0  0  0  0  0
   -1.0365   -6.6227    0.0000 C   0  0  0  0  0  0  0  0  0  0  0  0
   -1.5000   -5.1962    0.0000 C   0  0  0  0  0  0  0  0  0  0  0  0
   -0.7500   -3.8971    0.0000 C   0  0  0  0  0  0  0  0  0  0  0  0
    0.7500   -3.8971    0.0000 C   0  0  0  0  0  0  0  0  0  0  0  0
    1.5000   -2.5981    0.0000 C   0  0  0  0  0  0  0  0  0  0  0  0
    3.0000   -2.5981    0.0000 F   0  0  0  0  0  0  0  0  0  0  0  0
    0.7500   -1.2990    0.0000 C   0  0  0  0  0  0  0  0  0  0  0  0
    1.5000    0.0000    0.0000 C   0  0  0  0  0  0  0  0  0  0  0  0
    0.7500    1.2990    0.0000 C   0  0  0  0  0  0  0  0  0  0  0  0
    1.5000    2.5981    0.0000 O   0  0  0  0  0  0  0  0  0  0  0  0
   -0.7500    1.2990    0.0000 C   0  0  0  0  0  0  0  0  0  0  0  0
   -1.5000    0.0000    0.0000 C   0  0  0  0  0  0  0  0  0  0  0  0
   -0.7500   -1.2990    0.0000 C   0  0  0  0  0  0  0  0  0  0  0  0
   -1.6291   -1.1911    0.0000 C   0  0  0  0  0  0  0  0  0  0  0  0
   -1.5000   -2.5981    0.0000 C   0  0  0  0  0  0  0  0  0  0  0  0
   -2.0331   -1.8907    0.0000 F   0  0  0  0  0  0  0  0  0  0  0  0
   -3.0000   -2.5981    0.0000 C   0  0  0  0  0  0  0  0  0  0  0  0
   -3.7500   -1.2990    0.0000 O   0  0  0  0  0  0  0  0  0  0  0  0
   -3.7500   -3.8971    0.0000 C   0  0  0  0  0  0  0  0  0  0  0  0
   -3.0000   -5.1962    0.0000 C   0  0  0  0  0  0  0  0  0  0  0  0
   -4.4998   -5.1699    0.0000 C   0  0  0  0  0  0  0  0  0  0  0  0
   -3.4635   -6.6227    0.0000 C   0  0  0  0  0  0  0  0  0  0  0  0
   -4.8980   -6.1842    0.0000 O   0  0  0  0  0  0  0  0  0  0  0  0
   -4.2135   -7.9218    0.0000 C   0  0  0  0  0  0  0  0  0  0  0  0
   -3.4635   -9.2208    0.0000 O   0  0  0  0  0  0  0  0  0  0  0  0
   -5.7135   -7.9218    0.0000 C   0  0  0  0  0  0  0  0  0  0  0  0
   -6.4635   -9.2208    0.0000 O   0  0  0  0  0  0  0  0  0  0  0  0
  2  1  1  1
  2  3  1  0
  4  3  1  6
  4  5  1  0
  5  6  1  1
  6  7  1  0
  7  8  1  1
  7  9  1  0
  9 10  2  0
 10 11  1  0
 11 12  2  0
 11 13  1  0
 13 14  2  0
 14 15  1  0
 15 16  1  6
 15 17  1  0
 17 18  1  1
 17 19  1  0
 19 20  1  6
 19 21  1  0
 21 22  1  0
 22 23  1  6
 22 24  1  0
 24 25  1  1
 24 26  1  0
 26 27  2  0
 26 28  1  0
 28 29  1  0
 24  2  1  0
 22  4  1  0
 17  5  1  0
 15  9  1  0
M  END
>  <assay_description>  (126) 
Inhibition of human BSEP expressed in baculovirus transfected fall armyworm Sf21 cell membranes vesicles assessed as reduction in ATP-dependent [3H]-taurocholate transport into vesicles incubated for 5 mins by Topcount based rapid filtration method

>  <molecule_pref_name>  (126) 
FLUMETHASONE

>  <canonical_smiles>  (126) 
C[C@@H]1C[C@H]2[C@@H]3C[C@H](F)C4=CC(=O)C=C[C@]4(C)[C@@]3(F)[C@@H](O)C[C@]2(C)[C@@]1(O)C(=O)CO

>  <pchembl_value>  (126) 
4.17

>  <standard_type>  (126) 
IC50

>  <standard_relation>  (126) 
=

>  <standard_value>  (126) 
68460.0

>  <standard_units>  (126) 
nM

>  <target_pref_name>  (126) 
Bile salt export pump

>  <target_organism>  (126) 
Homo sapiens

$$$$
CHEMBL1201012
     RDKit          2D

 31 35  0  0  0  0  0  0  0  0999 V2000
   -4.0567  -10.4228    0.0000 C   0  0  0  0  0  0  0  0  0  0  0  0
   -4.2135   -8.9310    0.0000 C   0  0  0  0  0  0  0  0  0  0  0  0
   -5.6807   -9.2429    0.0000 C   0  0  0  0  0  0  0  0  0  0  0  0
   -2.7135   -8.9310    0.0000 O   0  0  0  0  0  0  0  0  0  0  0  0
   -2.2500   -7.5044    0.0000 C   0  0  0  0  0  0  0  0  0  0  0  0
   -1.0365   -6.6227    0.0000 C   0  0  0  0  0  0  0  0  0  0  0  0
   -1.5000   -5.1962    0.0000 C   0  0  0  0  0  0  0  0  0  0  0  0
   -0.7500   -3.8971    0.0000 C   0  0  0  0  0  0  0  0  0  0  0  0
    0.7500   -3.8971    0.0000 C   0  0  0  0  0  0  0  0  0  0  0  0
    1.5000   -2.5981    0.0000 C   0  0  0  0  0  0  0  0  0  0  0  0
    3.0000   -2.5981    0.0000 F   0  0  0  0  0  0  0  0  0  0  0  0
    0.7500   -1.2990    0.0000 C   0  0  0  0  0  0  0  0  0  0  0  0
    1.5000    0.0000    0.0000 C   0  0  0  0  0  0  0  0  0  0  0  0
    0.7500    1.2990    0.0000 C   0  0  0  0  0  0  0  0  0  0  0  0
    1.5000    2.5981    0.0000 O   0  0  0  0  0  0  0  0  0  0  0  0
   -0.7500    1.2990    0.0000 C   0  0  0  0  0  0  0  0  0  0  0  0
   -1.5000    0.0000    0.0000 C   0  0  0  0  0  0  0  0  0  0  0  0
   -0.7500   -1.2990    0.0000 C   0  0  0  0  0  0  0  0  0  0  0  0
   -2.2500   -1.2990    0.0000 C   0  0  0  0  0  0  0  0  0  0  0  0
   -1.5000   -2.5981    0.0000 C   0  0  0  0  0  0  0  0  0  0  0  0
   -3.0000   -2.5981    0.0000 C   0  0  0  0  0  0  0  0  0  0  0  0
   -3.7500   -1.2990    0.0000 O   0  0  0  0  0  0  0  0  0  0  0  0
   -3.7500   -3.8971    0.0000 C   0  0  0  0  0  0  0  0  0  0  0  0
   -3.0000   -5.1962    0.0000 C   0  0  0  0  0  0  0  0  0  0  0  0
   -3.7894   -5.0852    0.0000 C   0  0  0  0  0  0  0  0  0  0  0  0
   -3.4635   -6.6227    0.0000 C   0  0  0  0  0  0  0  0  0  0  0  0
   -4.6771   -5.7411    0.0000 C   0  0  0  0  0  0  0  0  0  0  0  0
   -4.5937   -4.9483    0.0000 O   0  0  0  0  0  0  0  0  0  0  0  0
   -6.0474   -6.3512    0.0000 C   0  0  0  0  0  0  0  0  0  0  0  0
   -7.2609   -5.4695    0.0000 O   0  0  0  0  0  0  0  0  0  0  0  0
   -4.6771   -7.5044    0.0000 O   0  0  0  0  0  0  0  0  0  0  0  0
  1  2  1  0
  2  3  1  0
  2  4  1  0
  4  5  1  0
  5  6  1  1
  7  6  1  6
  7  8  1  0
  8  9  1  1
  9 10  1  0
 10 11  1  1
 10 12  1  0
 12 13  2  0
 13 14  1  0
 14 15  2  0
 14 16  1  0
 16 17  1  0
 17 18  1  0
 18 19  1  6
 18 20  1  0
 20 21  1  6
 21 22  1  6
 21 23  1  0
 23 24  1  0
 24 25  1  6
 24 26  1  0
 26 27  1  6
 27 28  2  0
 27 29  1  0
 29 30  1  0
 26 31  1  0
 31  2  1  0
 26  5  1  0
 24  7  1  0
 20  8  1  0
 18 12  1  0
M  END
>  <assay_description>  (127) 
Inhibition of human BSEP expressed in baculovirus transfected fall armyworm Sf21 cell membranes vesicles assessed as reduction in ATP-dependent [3H]-taurocholate transport into vesicles incubated for 5 mins by Topcount based rapid filtration method

>  <molecule_pref_name>  (127) 
FLURANDRENOLIDE

>  <canonical_smiles>  (127) 
CC1(C)O[C@@H]2C[C@H]3[C@@H]4C[C@H](F)C5=CC(=O)CC[C@]5(C)[C@H]4[C@@H](O)C[C@]3(C)[C@]2(C(=O)CO)O1

>  <pchembl_value>  (127) 
4.15

>  <standard_type>  (127) 
IC50

>  <standard_relation>  (127) 
=

>  <standard_value>  (127) 
71190.0

>  <standard_units>  (127) 
nM

>  <target_pref_name>  (127) 
Bile salt export pump

>  <target_organism>  (127) 
Homo sapiens

$$$$
CHEMBL681
     RDKit          2D

 18 19  0  0  0  0  0  0  0  0999 V2000
    4.9620   -8.8942    0.0000 C   0  0  0  0  0  0  0  0  0  0  0  0
    3.9583   -7.7795    0.0000 C   0  0  0  0  0  0  0  0  0  0  0  0
    4.4218   -6.3529    0.0000 O   0  0  0  0  0  0  0  0  0  0  0  0
    3.4182   -5.2382    0.0000 C   0  0  0  0  0  0  0  0  0  0  0  0
    1.9509   -5.5501    0.0000 O   0  0  0  0  0  0  0  0  0  0  0  0
    3.8817   -3.8116    0.0000 C   0  0  0  0  0  0  0  0  0  0  0  0
    5.3083   -3.3481    0.0000 C   0  0  0  0  0  0  0  0  0  0  0  0
    5.3083   -1.8481    0.0000 N   0  0  0  0  0  0  0  0  0  0  0  0
    3.8817   -1.3846    0.0000 C   0  0  0  0  0  0  0  0  0  0  0  0
    3.0000   -2.5981    0.0000 N   0  0  0  0  0  0  0  0  0  0  0  0
    1.5000   -2.5981    0.0000 C   0  0  0  0  0  0  0  0  0  0  0  0
    0.7500   -3.8971    0.0000 C   0  0  0  0  0  0  0  0  0  0  0  0
    0.7500   -1.2990    0.0000 C   0  0  0  0  0  0  0  0  0  0  0  0
    1.5000    0.0000    0.0000 C   0  0  0  0  0  0  0  0  0  0  0  0
    0.7500    1.2990    0.0000 C   0  0  0  0  0  0  0  0  0  0  0  0
   -0.7500    1.2990    0.0000 C   0  0  0  0  0  0  0  0  0  0  0  0
   -1.5000    0.0000    0.0000 C   0  0  0  0  0  0  0  0  0  0  0  0
   -0.7500   -1.2990    0.0000 C   0  0  0  0  0  0  0  0  0  0  0  0
  1  2  1  0
  2  3  1  0
  3  4  1  0
  4  5  2  0
  4  6  1  0
  6  7  2  0
  7  8  1  0
  8  9  2  0
  9 10  1  0
 10 11  1  0
 11 12  1  6
 11 13  1  0
 13 14  2  0
 14 15  1  0
 15 16  2  0
 16 17  1  0
 17 18  2  0
 10  6  1  0
 18 13  1  0
M  END
>  <assay_description>  (128) 
Inhibition of human BSEP expressed in baculovirus transfected fall armyworm Sf21 cell membranes vesicles assessed as reduction in ATP-dependent [3H]-taurocholate transport into vesicles incubated for 5 mins by Topcount based rapid filtration method

>  <molecule_pref_name>  (128) 
ETOMIDATE

>  <canonical_smiles>  (128) 
CCOC(=O)c1cncn1[C@H](C)c1ccccc1

>  <pchembl_value>  (128) 
4.21

>  <standard_type>  (128) 
IC50

>  <standard_relation>  (128) 
=

>  <standard_value>  (128) 
61610.0

>  <standard_units>  (128) 
nM

>  <target_pref_name>  (128) 
Bile salt export pump

>  <target_organism>  (128) 
Homo sapiens

$$$$
CHEMBL94007
     RDKit          2D

 19 21  0  0  0  0  0  0  0  0999 V2000
    5.2500   -1.2990    0.0000 C   0  0  0  0  0  0  0  0  0  0  0  0
    3.7500   -1.2990    0.0000 C   0  0  0  0  0  0  0  0  0  0  0  0
    3.0000    0.0000    0.0000 O   0  0  0  0  0  0  0  0  0  0  0  0
    1.5000    0.0000    0.0000 C   0  0  0  0  0  0  0  0  0  0  0  0
    0.7500   -1.2990    0.0000 C   0  0  0  0  0  0  0  0  0  0  0  0
   -0.7500   -1.2990    0.0000 C   0  0  0  0  0  0  0  0  0  0  0  0
   -1.5000    0.0000    0.0000 C   0  0  0  0  0  0  0  0  0  0  0  0
   -3.0000    0.0000    0.0000 N   0  0  0  0  0  0  0  0  0  0  0  0
   -3.7500    1.2990    0.0000 C   0  0  0  0  0  0  0  0  0  0  0  0
   -5.2500    1.2990    0.0000 C   0  0  0  0  0  0  0  0  0  0  0  0
   -6.0000    2.5981    0.0000 C   0  0  0  0  0  0  0  0  0  0  0  0
   -7.5000    2.5981    0.0000 N   0  0  0  0  0  0  0  0  0  0  0  0
   -5.2500    3.8971    0.0000 C   0  0  0  0  0  0  0  0  0  0  0  0
   -3.7500    3.8971    0.0000 C   0  0  0  0  0  0  0  0  0  0  0  0
   -3.0000    2.5981    0.0000 C   0  0  0  0  0  0  0  0  0  0  0  0
   -1.5000    2.5981    0.0000 C   0  0  0  0  0  0  0  0  0  0  0  0
   -0.7500    3.8971    0.0000 N   0  0  0  0  0  0  0  0  0  0  0  0
   -0.7500    1.2990    0.0000 C   0  0  0  0  0  0  0  0  0  0  0  0
    0.7500    1.2990    0.0000 C   0  0  0  0  0  0  0  0  0  0  0  0
  1  2  1  0
  2  3  1  0
  3  4  1  0
  4  5  2  0
  5  6  1  0
  6  7  2  0
  7  8  1  0
  8  9  2  0
  9 10  1  0
 10 11  2  0
 11 12  1  0
 11 13  1  0
 13 14  2  0
 14 15  1  0
 15 16  2  0
 16 17  1  0
 16 18  1  0
 18 19  2  0
 19  4  1  0
 18  7  1  0
 15  9  1  0
M  END
>  <assay_description>  (129) 
Inhibition of human BSEP expressed in baculovirus transfected fall armyworm Sf21 cell membranes vesicles assessed as reduction in ATP-dependent [3H]-taurocholate transport into vesicles incubated for 5 mins by Topcount based rapid filtration method

>  <molecule_pref_name>  (129) 
ETHACRIDINE

>  <canonical_smiles>  (129) 
CCOc1ccc2nc3cc(N)ccc3c(N)c2c1

>  <pchembl_value>  (129) 
4.36

>  <standard_type>  (129) 
IC50

>  <standard_relation>  (129) 
=

>  <standard_value>  (129) 
43480.0

>  <standard_units>  (129) 
nM

>  <target_pref_name>  (129) 
Bile salt export pump

>  <target_organism>  (129) 
Homo sapiens

$$$$
CHEMBL961
     RDKit          2D

  8  7  0  0  0  0  0  0  0  0999 V2000
    0.0000    0.0000    0.0000 C   0  0  0  0  0  0  0  0  0  0  0  0
    1.2990    0.7500    0.0000 C   0  0  0  0  0  0  0  0  0  0  0  0
    2.5981   -0.0000    0.0000 N   0  0  0  0  0  0  0  0  0  0  0  0
    3.8971    0.7500    0.0000 C   0  0  0  0  0  0  0  0  0  0  0  0
    5.1962   -0.0000    0.0000 C   0  0  0  0  0  0  0  0  0  0  0  0
    2.5981   -1.5000    0.0000 C   0  0  0  0  0  0  0  0  0  0  0  0
    1.2990   -2.2500    0.0000 S   0  0  0  0  0  0  0  0  0  0  0  0
    3.8971   -2.2500    0.0000 S   0  0  0  0  0  0  0  0  0  0  0  0
  1  2  1  0
  2  3  1  0
  3  4  1  0
  4  5  1  0
  3  6  1  0
  6  7  2  0
  6  8  1  0
M  END
>  <assay_description>  (130) 
Inhibition of human BSEP expressed in baculovirus transfected fall armyworm Sf21 cell membranes vesicles assessed as reduction in ATP-dependent [3H]-taurocholate transport into vesicles incubated for 5 mins by Topcount based rapid filtration method

>  <molecule_pref_name>  (130) 
DITIOCARB

>  <canonical_smiles>  (130) 
CCN(CC)C(=S)S

>  <pchembl_value>  (130) 
4.16

>  <standard_type>  (130) 
IC50

>  <standard_relation>  (130) 
=

>  <standard_value>  (130) 
69260.0

>  <standard_units>  (130) 
nM

>  <target_pref_name>  (130) 
Bile salt export pump

>  <target_organism>  (130) 
Homo sapiens

$$$$
CHEMBL127643
     RDKit          2D

 20 21  0  0  0  0  0  0  0  0999 V2000
    0.7500   -9.0933    0.0000 C   0  0  0  0  0  0  0  0  0  0  0  0
    1.5000   -7.7942    0.0000 C   0  0  0  0  0  0  0  0  0  0  0  0
    0.7500   -6.4952    0.0000 C   0  0  0  0  0  0  0  0  0  0  0  0
    1.5000   -5.1962    0.0000 C   0  0  0  0  0  0  0  0  0  0  0  0
    0.7500   -3.8971    0.0000 C   0  0  0  0  0  0  0  0  0  0  0  0
    1.5000   -2.5981    0.0000 C   0  0  0  0  0  0  0  0  0  0  0  0
    0.7500   -1.2990    0.0000 C   0  0  0  0  0  0  0  0  0  0  0  0
    1.5000    0.0000    0.0000 C   0  0  0  0  0  0  0  0  0  0  0  0
    0.7500    1.2990    0.0000 C   0  0  0  0  0  0  0  0  0  0  0  0
   -0.7500    1.2990    0.0000 C   0  0  0  0  0  0  0  0  0  0  0  0
   -1.5000    0.0000    0.0000 C   0  0  0  0  0  0  0  0  0  0  0  0
   -0.7500   -1.2990    0.0000 C   0  0  0  0  0  0  0  0  0  0  0  0
   -1.5000   -2.5981    0.0000 C   0  0  0  0  0  0  0  0  0  0  0  0
   -3.0000   -2.5981    0.0000 O   0  0  0  0  0  0  0  0  0  0  0  0
   -3.7500   -3.8971    0.0000 C   0  0  0  0  0  0  0  0  0  0  0  0
   -5.2500   -3.8971    0.0000 C   0  0  0  0  0  0  0  0  0  0  0  0
   -6.0000   -5.1962    0.0000 N   0  0  0  0  0  0  0  0  0  0  0  0
   -7.5000   -5.1962    0.0000 C   0  0  0  0  0  0  0  0  0  0  0  0
   -5.2500   -6.4952    0.0000 C   0  0  0  0  0  0  0  0  0  0  0  0
   -0.7500   -3.8971    0.0000 N   0  0  0  0  0  0  0  0  0  0  0  0
  1  2  1  0
  2  3  1  0
  3  4  1  0
  4  5  1  0
  5  6  2  0
  6  7  1  0
  7  8  2  0
  8  9  1  0
  9 10  2  0
 10 11  1  0
 11 12  2  0
 12 13  1  0
 13 14  1  0
 14 15  1  0
 15 16  1  0
 16 17  1  0
 17 18  1  0
 17 19  1  0
 13 20  2  0
 20  5  1  0
 12  7  1  0
M  END
>  <assay_description>  (131) 
Inhibition of human BSEP expressed in baculovirus transfected fall armyworm Sf21 cell membranes vesicles assessed as reduction in ATP-dependent [3H]-taurocholate transport into vesicles incubated for 5 mins by Topcount based rapid filtration method

>  <molecule_pref_name>  (131) 
DIMETHISOQUIN

>  <canonical_smiles>  (131) 
CCCCc1cc2ccccc2c(OCCN(C)C)n1

>  <pchembl_value>  (131) 
4.16

>  <standard_type>  (131) 
IC50

>  <standard_relation>  (131) 
=

>  <standard_value>  (131) 
68680.0

>  <standard_units>  (131) 
nM

>  <target_pref_name>  (131) 
Bile salt export pump

>  <target_organism>  (131) 
Homo sapiens

$$$$
CHEMBL1123
     RDKit          2D

 22 23  0  0  0  0  0  0  0  0999 V2000
   10.3249   -0.2804    0.0000 C   0  0  0  0  0  0  0  0  0  0  0  0
    9.1758   -1.2446    0.0000 C   0  0  0  0  0  0  0  0  0  0  0  0
    7.7663   -0.7316    0.0000 N   0  0  0  0  0  0  0  0  0  0  0  0
    7.5058    0.7456    0.0000 C   0  0  0  0  0  0  0  0  0  0  0  0
    8.6549    1.7098    0.0000 C   0  0  0  0  0  0  0  0  0  0  0  0
    6.6172   -1.6958    0.0000 C   0  0  0  0  0  0  0  0  0  0  0  0
    5.2077   -1.1827    0.0000 C   0  0  0  0  0  0  0  0  0  0  0  0
    4.0586   -2.1469    0.0000 O   0  0  0  0  0  0  0  0  0  0  0  0
    2.6491   -1.6339    0.0000 C   0  0  0  0  0  0  0  0  0  0  0  0
    2.3886   -0.1567    0.0000 O   0  0  0  0  0  0  0  0  0  0  0  0
    1.5000   -2.5981    0.0000 C   0  0  0  0  0  0  0  0  0  0  0  0
    0.7500   -1.2990    0.0000 C   0  0  0  0  0  0  0  0  0  0  0  0
    1.5000    0.0000    0.0000 C   0  0  0  0  0  0  0  0  0  0  0  0
    0.7500    1.2990    0.0000 C   0  0  0  0  0  0  0  0  0  0  0  0
   -0.7500    1.2990    0.0000 C   0  0  0  0  0  0  0  0  0  0  0  0
   -1.5000    0.0000    0.0000 C   0  0  0  0  0  0  0  0  0  0  0  0
   -0.7500   -1.2990    0.0000 C   0  0  0  0  0  0  0  0  0  0  0  0
    0.0905   -3.1111    0.0000 C   0  0  0  0  0  0  0  0  0  0  0  0
   -0.1700   -4.5883    0.0000 C   0  0  0  0  0  0  0  0  0  0  0  0
    0.9791   -5.5525    0.0000 C   0  0  0  0  0  0  0  0  0  0  0  0
    2.3886   -5.0395    0.0000 C   0  0  0  0  0  0  0  0  0  0  0  0
    2.6491   -3.5623    0.0000 C   0  0  0  0  0  0  0  0  0  0  0  0
  1  2  1  0
  2  3  1  0
  3  4  1  0
  4  5  1  0
  3  6  1  0
  6  7  1  0
  7  8  1  0
  8  9  1  0
  9 10  2  0
  9 11  1  0
 11 12  1  0
 12 13  1  0
 13 14  1  0
 14 15  1  0
 15 16  1  0
 16 17  1  0
 11 18  1  0
 18 19  1  0
 19 20  1  0
 20 21  1  0
 21 22  1  0
 22 11  1  0
 17 12  1  0
M  END
>  <assay_description>  (132) 
Inhibition of human BSEP expressed in baculovirus transfected fall armyworm Sf21 cell membranes vesicles assessed as reduction in ATP-dependent [3H]-taurocholate transport into vesicles incubated for 5 mins by Topcount based rapid filtration method

>  <molecule_pref_name>  (132) 
DICYCLOMINE

>  <canonical_smiles>  (132) 
CCN(CC)CCOC(=O)C1(C2CCCCC2)CCCCC1

>  <pchembl_value>  (132) 
4.40

>  <standard_type>  (132) 
IC50

>  <standard_relation>  (132) 
=

>  <standard_value>  (132) 
40040.0

>  <standard_units>  (132) 
nM

>  <target_pref_name>  (132) 
Bile salt export pump

>  <target_organism>  (132) 
Homo sapiens

$$$$
CHEMBL1466
     RDKit          2D

 25 28  0  0  0  0  0  0  0  0999 V2000
   -2.4768   -2.4781    0.0000 O   0  0  0  0  0  0  0  0  0  0  0  0
   -1.5000   -2.5981    0.0000 C   0  0  0  0  0  0  0  0  0  0  0  0
   -0.7500   -1.2990    0.0000 O   0  0  0  0  0  0  0  0  0  0  0  0
    0.7500   -1.2990    0.0000 C   0  0  0  0  0  0  0  0  0  0  0  0
    1.5000    0.0000    0.0000 C   0  0  0  0  0  0  0  0  0  0  0  0
    3.0000   -0.0000    0.0000 C   0  0  0  0  0  0  0  0  0  0  0  0
    3.7500   -1.2990    0.0000 C   0  0  0  0  0  0  0  0  0  0  0  0
    3.0000   -2.5981    0.0000 C   0  0  0  0  0  0  0  0  0  0  0  0
    1.5000   -2.5981    0.0000 C   0  0  0  0  0  0  0  0  0  0  0  0
    0.7500   -3.8971    0.0000 C   0  0  0  0  0  0  0  0  0  0  0  0
    1.5000   -5.1962    0.0000 O   0  0  0  0  0  0  0  0  0  0  0  0
   -0.7500   -3.8971    0.0000 C   0  0  0  0  0  0  0  0  0  0  0  0
   -1.5000   -5.1962    0.0000 C   0  0  0  0  0  0  0  0  0  0  0  0
   -3.0000   -5.1962    0.0000 C   0  0  0  0  0  0  0  0  0  0  0  0
   -3.7500   -6.4952    0.0000 C   0  0  0  0  0  0  0  0  0  0  0  0
   -3.0000   -7.7942    0.0000 O   0  0  0  0  0  0  0  0  0  0  0  0
   -5.2500   -6.4952    0.0000 C   0  0  0  0  0  0  0  0  0  0  0  0
   -6.0000   -7.7942    0.0000 C   0  0  0  0  0  0  0  0  0  0  0  0
   -7.5000   -7.7942    0.0000 C   0  0  0  0  0  0  0  0  0  0  0  0
   -8.2500   -6.4952    0.0000 C   0  0  0  0  0  0  0  0  0  0  0  0
   -7.5000   -5.1962    0.0000 C   0  0  0  0  0  0  0  0  0  0  0  0
   -6.0000   -5.1962    0.0000 C   0  0  0  0  0  0  0  0  0  0  0  0
   -5.2500   -3.8971    0.0000 O   0  0  0  0  0  0  0  0  0  0  0  0
   -3.7500   -3.8971    0.0000 C   0  0  0  0  0  0  0  0  0  0  0  0
   -3.3655   -2.9912    0.0000 O   0  0  0  0  0  0  0  0  0  0  0  0
  1  2  2  0
  2  3  1  0
  3  4  1  0
  4  5  2  0
  5  6  1  0
  6  7  2  0
  7  8  1  0
  8  9  2  0
  9 10  1  0
 10 11  1  0
 10 12  2  0
 12 13  1  0
 13 14  1  0
 14 15  2  0
 15 16  1  0
 15 17  1  0
 17 18  2  0
 18 19  1  0
 19 20  2  0
 20 21  1  0
 21 22  2  0
 22 23  1  0
 23 24  1  0
 24 25  2  0
 12  2  1  0
 24 14  1  0
  9  4  1  0
 22 17  1  0
M  END
>  <assay_description>  (133) 
Inhibition of human BSEP expressed in baculovirus transfected fall armyworm Sf21 cell membranes vesicles assessed as reduction in ATP-dependent [3H]-taurocholate transport into vesicles incubated for 5 mins by Topcount based rapid filtration method

>  <molecule_pref_name>  (133) 
DICUMAROL

>  <canonical_smiles>  (133) 
O=c1oc2ccccc2c(O)c1Cc1c(O)c2ccccc2oc1=O

>  <pchembl_value>  (133) 
4.40

>  <standard_type>  (133) 
IC50

>  <standard_relation>  (133) 
=

>  <standard_value>  (133) 
39930.0

>  <standard_units>  (133) 
nM

>  <target_pref_name>  (133) 
Bile salt export pump

>  <target_organism>  (133) 
Homo sapiens

$$$$
CHEMBL139
     RDKit          2D

 19 20  0  0  0  0  0  0  0  0999 V2000
    3.0000   -2.5981    0.0000 O   0  0  0  0  0  0  0  0  0  0  0  0
    3.7500   -1.2990    0.0000 C   0  0  0  0  0  0  0  0  0  0  0  0
    5.2500   -1.2990    0.0000 O   0  0  0  0  0  0  0  0  0  0  0  0
    3.0000    0.0000    0.0000 C   0  0  0  0  0  0  0  0  0  0  0  0
    1.5000    0.0000    0.0000 C   0  0  0  0  0  0  0  0  0  0  0  0
    0.7500   -1.2990    0.0000 C   0  0  0  0  0  0  0  0  0  0  0  0
   -0.7500   -1.2990    0.0000 C   0  0  0  0  0  0  0  0  0  0  0  0
   -1.5000    0.0000    0.0000 C   0  0  0  0  0  0  0  0  0  0  0  0
   -0.7500    1.2990    0.0000 C   0  0  0  0  0  0  0  0  0  0  0  0
    0.7500    1.2990    0.0000 C   0  0  0  0  0  0  0  0  0  0  0  0
    1.5000    2.5981    0.0000 N   0  0  0  0  0  0  0  0  0  0  0  0
    0.7500    3.8971    0.0000 C   0  0  0  0  0  0  0  0  0  0  0  0
    1.5000    5.1962    0.0000 C   0  0  0  0  0  0  0  0  0  0  0  0
    3.0000    5.1962    0.0000 Cl  0  0  0  0  0  0  0  0  0  0  0  0
    0.7500    6.4952    0.0000 C   0  0  0  0  0  0  0  0  0  0  0  0
   -0.7500    6.4952    0.0000 C   0  0  0  0  0  0  0  0  0  0  0  0
   -1.5000    5.1962    0.0000 C   0  0  0  0  0  0  0  0  0  0  0  0
   -0.7500    3.8971    0.0000 C   0  0  0  0  0  0  0  0  0  0  0  0
   -1.5000    2.5981    0.0000 Cl  0  0  0  0  0  0  0  0  0  0  0  0
  1  2  2  0
  2  3  1  0
  2  4  1  0
  4  5  1  0
  5  6  2  0
  6  7  1  0
  7  8  2  0
  8  9  1  0
  9 10  2  0
 10 11  1  0
 11 12  1  0
 12 13  2  0
 13 14  1  0
 13 15  1  0
 15 16  2  0
 16 17  1  0
 17 18  2  0
 18 19  1  0
 10  5  1  0
 18 12  1  0
M  END
>  <assay_description>  (134) 
Inhibition of human BSEP expressed in baculovirus transfected fall armyworm Sf21 cell membranes vesicles assessed as reduction in ATP-dependent [3H]-taurocholate transport into vesicles incubated for 5 mins by Topcount based rapid filtration method

>  <molecule_pref_name>  (134) 
DICLOFENAC

>  <canonical_smiles>  (134) 
O=C(O)Cc1ccccc1Nc1c(Cl)cccc1Cl

>  <pchembl_value>  (134) 
4.19

>  <standard_type>  (134) 
IC50

>  <standard_relation>  (134) 
=

>  <standard_value>  (134) 
64970.0

>  <standard_units>  (134) 
nM

>  <target_pref_name>  (134) 
Bile salt export pump

>  <target_organism>  (134) 
Homo sapiens

$$$$
CHEMBL28636
     RDKit          2D

 27 29  0  0  0  0  0  0  0  0999 V2000
    3.7500   -1.2990    0.0000 C   0  0  0  0  0  0  0  0  0  0  0  0
    3.0000    0.0000    0.0000 O   0  0  0  0  0  0  0  0  0  0  0  0
    1.5000    0.0000    0.0000 C   0  0  0  0  0  0  0  0  0  0  0  0
    0.7500   -1.2990    0.0000 C   0  0  0  0  0  0  0  0  0  0  0  0
   -0.7500   -1.2990    0.0000 C   0  0  0  0  0  0  0  0  0  0  0  0
   -1.5000    0.0000    0.0000 C   0  0  0  0  0  0  0  0  0  0  0  0
   -3.0000    0.0000    0.0000 C   0  0  0  0  0  0  0  0  0  0  0  0
   -3.8817   -1.2135    0.0000 C   0  0  0  0  0  0  0  0  0  0  0  0
   -5.3083   -0.7500    0.0000 C   0  0  0  0  0  0  0  0  0  0  0  0
   -6.5218   -1.6317    0.0000 C   0  0  0  0  0  0  0  0  0  0  0  0
   -7.8921   -1.0216    0.0000 F   0  0  0  0  0  0  0  0  0  0  0  0
   -6.3650   -3.1235    0.0000 F   0  0  0  0  0  0  0  0  0  0  0  0
   -5.3083    0.7500    0.0000 N   0  0  0  0  0  0  0  0  0  0  0  0
   -3.8817    1.2135    0.0000 N   0  0  0  0  0  0  0  0  0  0  0  0
   -3.4182    2.6401    0.0000 C   0  0  0  0  0  0  0  0  0  0  0  0
   -1.9509    2.9520    0.0000 C   0  0  0  0  0  0  0  0  0  0  0  0
   -1.4874    4.3786    0.0000 C   0  0  0  0  0  0  0  0  0  0  0  0
   -2.4911    5.4933    0.0000 C   0  0  0  0  0  0  0  0  0  0  0  0
   -2.0276    6.9199    0.0000 S   0  0  0  0  0  0  0  0  0  0  0  0
   -1.5641    8.3464    0.0000 N   0  0  0  0  0  0  0  0  0  0  0  0
   -0.6010    6.4563    0.0000 O   0  0  0  0  0  0  0  0  0  0  0  0
   -3.4542    7.3834    0.0000 O   0  0  0  0  0  0  0  0  0  0  0  0
   -3.9583    5.1814    0.0000 C   0  0  0  0  0  0  0  0  0  0  0  0
   -4.4218    3.7548    0.0000 C   0  0  0  0  0  0  0  0  0  0  0  0
   -0.7500    1.2990    0.0000 C   0  0  0  0  0  0  0  0  0  0  0  0
    0.7500    1.2990    0.0000 C   0  0  0  0  0  0  0  0  0  0  0  0
    1.5000    2.5981    0.0000 F   0  0  0  0  0  0  0  0  0  0  0  0
  1  2  1  0
  2  3  1  0
  3  4  2  0
  4  5  1  0
  5  6  2  0
  6  7  1  0
  7  8  2  0
  8  9  1  0
  9 10  1  0
 10 11  1  0
 10 12  1  0
  9 13  2  0
 13 14  1  0
 14 15  1  0
 15 16  2  0
 16 17  1  0
 17 18  2  0
 18 19  1  0
 19 20  1  0
 19 21  2  0
 19 22  2  0
 18 23  1  0
 23 24  2  0
  6 25  1  0
 25 26  2  0
 26 27  1  0
 26  3  1  0
 14  7  1  0
 24 15  1  0
M  END
>  <assay_description>  (135) 
Inhibition of human BSEP expressed in baculovirus transfected fall armyworm Sf21 cell membranes vesicles assessed as reduction in ATP-dependent [3H]-taurocholate transport into vesicles incubated for 5 mins by Topcount based rapid filtration method

>  <molecule_pref_name>  (135) 
DERACOXIB

>  <canonical_smiles>  (135) 
COc1ccc(-c2cc(C(F)F)nn2-c2ccc(S(N)(=O)=O)cc2)cc1F

>  <pchembl_value>  (135) 
4.70

>  <standard_type>  (135) 
IC50

>  <standard_relation>  (135) 
=

>  <standard_value>  (135) 
20180.0

>  <standard_units>  (135) 
nM

>  <target_pref_name>  (135) 
Bile salt export pump

>  <target_organism>  (135) 
Homo sapiens

$$$$
CHEMBL891
     RDKit          2D

 29 32  0  0  0  0  0  0  0  0999 V2000
   -5.8185    2.8740    0.0000 C   0  0  0  0  0  0  0  0  0  0  0  0
   -5.5838    4.3555    0.0000 C   0  0  0  0  0  0  0  0  0  0  0  0
   -6.6445    5.4162    0.0000 O   0  0  0  0  0  0  0  0  0  0  0  0
   -5.9635    6.7527    0.0000 N   0  0  0  0  0  0  0  0  0  0  0  0
   -4.4820    6.5180    0.0000 C   0  0  0  0  0  0  0  0  0  0  0  0
   -3.4213    7.5787    0.0000 C   0  0  0  0  0  0  0  0  0  0  0  0
   -1.9724    7.1905    0.0000 C   0  0  0  0  0  0  0  0  0  0  0  0
   -0.9118    8.2511    0.0000 C   0  0  0  0  0  0  0  0  0  0  0  0
   -1.3000    9.7000    0.0000 C   0  0  0  0  0  0  0  0  0  0  0  0
   -2.7489   10.0882    0.0000 C   0  0  0  0  0  0  0  0  0  0  0  0
   -3.8096    9.0276    0.0000 C   0  0  0  0  0  0  0  0  0  0  0  0
   -5.2584    9.4158    0.0000 Cl  0  0  0  0  0  0  0  0  0  0  0  0
   -4.2473    5.0365    0.0000 C   0  0  0  0  0  0  0  0  0  0  0  0
   -2.9108    4.3555    0.0000 C   0  0  0  0  0  0  0  0  0  0  0  0
   -1.6528    5.1725    0.0000 O   0  0  0  0  0  0  0  0  0  0  0  0
   -2.8323    2.8576    0.0000 N   0  0  0  0  0  0  0  0  0  0  0  0
   -1.4958    2.1766    0.0000 C   0  0  0  0  0  0  0  0  0  0  0  0
   -0.0692    2.6401    0.0000 C   0  0  0  0  0  0  0  0  0  0  0  0
    0.6118    3.9766    0.0000 O   0  0  0  0  0  0  0  0  0  0  0  0
    0.3943    1.2135    0.0000 N   0  0  0  0  0  0  0  0  0  0  0  0
    1.2760    0.0000    0.0000 C   0  0  0  0  0  0  0  0  0  0  0  0
    2.7760    0.0000    0.0000 C   0  0  0  0  0  0  0  0  0  0  0  0
    3.5260    1.2990    0.0000 O   0  0  0  0  0  0  0  0  0  0  0  0
    3.5260   -1.2990    0.0000 O   0  0  0  0  0  0  0  0  0  0  0  0
    0.3943   -1.2135    0.0000 C   0  0  0  0  0  0  0  0  0  0  0  0
    1.6933   -1.9635    0.0000 C   0  0  0  0  0  0  0  0  0  0  0  0
   -0.2158   -2.5838    0.0000 C   0  0  0  0  0  0  0  0  0  0  0  0
   -1.0323   -0.7500    0.0000 S   0  0  0  0  0  0  0  0  0  0  0  0
   -1.0323    0.7500    0.0000 C   0  0  0  0  0  0  0  0  0  0  0  0
  1  2  1  0
  2  3  1  0
  3  4  1  0
  4  5  2  0
  5  6  1  0
  6  7  2  0
  7  8  1  0
  8  9  2  0
  9 10  1  0
 10 11  2  0
 11 12  1  0
  5 13  1  0
 13 14  1  0
 14 15  2  0
 14 16  1  0
 17 16  1  6
 17 18  1  0
 18 19  2  0
 18 20  1  0
 20 21  1  0
 21 22  1  1
 22 23  2  0
 22 24  1  0
 21 25  1  0
 25 26  1  0
 25 27  1  0
 25 28  1  0
 29 28  1  6
 13  2  2  0
 29 17  1  0
 11  6  1  0
 29 20  1  0
M  END
>  <assay_description>  (136) 
Inhibition of human BSEP expressed in baculovirus transfected fall armyworm Sf21 cell membranes vesicles assessed as reduction in ATP-dependent [3H]-taurocholate transport into vesicles incubated for 5 mins by Topcount based rapid filtration method

>  <molecule_pref_name>  (136) 
CLOXACILLIN

>  <canonical_smiles>  (136) 
Cc1onc(-c2ccccc2Cl)c1C(=O)N[C@@H]1C(=O)N2[C@@H](C(=O)O)C(C)(C)S[C@H]12

>  <pchembl_value>  (136) 
4.38

>  <standard_type>  (136) 
IC50

>  <standard_relation>  (136) 
=

>  <standard_value>  (136) 
41570.0

>  <standard_units>  (136) 
nM

>  <target_pref_name>  (136) 
Bile salt export pump

>  <target_organism>  (136) 
Homo sapiens

$$$$
CHEMBL1480987
     RDKit          2D

 20 21  0  0  0  0  0  0  0  0999 V2000
    3.0000    0.0000    0.0000 C   0  0  0  0  0  0  0  0  0  0  0  0
    1.5000    0.0000    0.0000 C   0  0  0  0  0  0  0  0  0  0  0  0
    0.7500   -1.2990    0.0000 C   0  0  0  0  0  0  0  0  0  0  0  0
   -0.7500   -1.2990    0.0000 C   0  0  0  0  0  0  0  0  0  0  0  0
   -1.5000   -2.5981    0.0000 O   0  0  0  0  0  0  0  0  0  0  0  0
   -3.0000   -2.5981    0.0000 C   0  0  0  0  0  0  0  0  0  0  0  0
   -3.7500   -1.2990    0.0000 O   0  0  0  0  0  0  0  0  0  0  0  0
   -3.7500   -3.8971    0.0000 C   0  0  0  0  0  0  0  0  0  0  0  0
   -3.0000   -5.1962    0.0000 O   0  0  0  0  0  0  0  0  0  0  0  0
   -5.2500   -3.8971    0.0000 C   0  0  0  0  0  0  0  0  0  0  0  0
   -6.0000   -2.5981    0.0000 C   0  0  0  0  0  0  0  0  0  0  0  0
   -7.5000   -2.5981    0.0000 C   0  0  0  0  0  0  0  0  0  0  0  0
   -8.2500   -3.8971    0.0000 C   0  0  0  0  0  0  0  0  0  0  0  0
   -7.5000   -5.1962    0.0000 C   0  0  0  0  0  0  0  0  0  0  0  0
   -6.0000   -5.1962    0.0000 C   0  0  0  0  0  0  0  0  0  0  0  0
   -1.5000    0.0000    0.0000 C   0  0  0  0  0  0  0  0  0  0  0  0
   -0.7500    1.2990    0.0000 C   0  0  0  0  0  0  0  0  0  0  0  0
   -2.1595    1.8121    0.0000 C   0  0  0  0  0  0  0  0  0  0  0  0
   -0.4895    2.7762    0.0000 C   0  0  0  0  0  0  0  0  0  0  0  0
    0.7500    1.2990    0.0000 C   0  0  0  0  0  0  0  0  0  0  0  0
  1  2  1  0
  2  3  1  0
  3  4  1  0
  4  5  1  0
  5  6  1  0
  6  7  2  0
  6  8  1  0
  8  9  1  0
  8 10  1  0
 10 11  2  0
 11 12  1  0
 12 13  2  0
 13 14  1  0
 14 15  2  0
  4 16  1  0
 16 17  1  0
 17 18  1  0
 17 19  1  0
 17 20  1  0
 20  2  1  0
 15 10  1  0
M  END
>  <assay_description>  (137) 
Inhibition of human BSEP expressed in baculovirus transfected fall armyworm Sf21 cell membranes vesicles assessed as reduction in ATP-dependent [3H]-taurocholate transport into vesicles incubated for 5 mins by Topcount based rapid filtration method

>  <molecule_pref_name>  (137) 
CYCLANDELATE

>  <canonical_smiles>  (137) 
CC1CC(OC(=O)C(O)c2ccccc2)CC(C)(C)C1

>  <pchembl_value>  (137) 
4.82

>  <standard_type>  (137) 
IC50

>  <standard_relation>  (137) 
=

>  <standard_value>  (137) 
15030.0

>  <standard_units>  (137) 
nM

>  <target_pref_name>  (137) 
Bile salt export pump

>  <target_organism>  (137) 
Homo sapiens

$$$$
CHEMBL1069
     RDKit          2D

 32 34  0  0  0  0  0  0  0  0999 V2000
    3.0000   -7.7942    0.0000 C   0  0  0  0  0  0  0  0  0  0  0  0
    3.7500   -6.4952    0.0000 C   0  0  0  0  0  0  0  0  0  0  0  0
    3.0000   -5.1962    0.0000 C   0  0  0  0  0  0  0  0  0  0  0  0
    3.7500   -3.8971    0.0000 C   0  0  0  0  0  0  0  0  0  0  0  0
    3.0000   -2.5981    0.0000 C   0  0  0  0  0  0  0  0  0  0  0  0
    1.5000   -2.5981    0.0000 O   0  0  0  0  0  0  0  0  0  0  0  0
    3.7500   -1.2990    0.0000 N   0  0  0  0  0  0  0  0  0  0  0  0
    3.0000    0.0000    0.0000 C   0  0  0  0  0  0  0  0  0  0  0  0
    1.5000    0.0000    0.0000 C   0  0  0  0  0  0  0  0  0  0  0  0
    0.7500   -1.2990    0.0000 C   0  0  0  0  0  0  0  0  0  0  0  0
   -0.7500   -1.2990    0.0000 C   0  0  0  0  0  0  0  0  0  0  0  0
   -1.5000    0.0000    0.0000 C   0  0  0  0  0  0  0  0  0  0  0  0
   -3.0000    0.0000    0.0000 C   0  0  0  0  0  0  0  0  0  0  0  0
   -3.7500    1.2990    0.0000 C   0  0  0  0  0  0  0  0  0  0  0  0
   -5.2500    1.2990    0.0000 C   0  0  0  0  0  0  0  0  0  0  0  0
   -6.0000    0.0000    0.0000 C   0  0  0  0  0  0  0  0  0  0  0  0
   -5.2500   -1.2990    0.0000 C   0  0  0  0  0  0  0  0  0  0  0  0
   -3.7500   -1.2990    0.0000 C   0  0  0  0  0  0  0  0  0  0  0  0
   -3.0000   -2.5981    0.0000 C   0  0  0  0  0  0  0  0  0  0  0  0
   -1.5082   -2.7549    0.0000 N   0  0  0  0  0  0  0  0  0  0  0  0
   -1.1963   -4.2221    0.0000 N   0  0  0  0  0  0  0  0  0  0  0  0
   -2.4954   -4.9721    0.0000 N   0  0  0  0  0  0  0  0  0  0  0  0
   -3.6101   -3.9684    0.0000 N   0  0  0  0  0  0  0  0  0  0  0  0
   -0.7500    1.2990    0.0000 C   0  0  0  0  0  0  0  0  0  0  0  0
    0.7500    1.2990    0.0000 C   0  0  0  0  0  0  0  0  0  0  0  0
    5.2500   -1.2990    0.0000 C   0  0  0  0  0  0  0  0  0  0  0  0
    6.0000    0.0000    0.0000 C   0  0  0  0  0  0  0  0  0  0  0  0
    5.2500    1.2990    0.0000 O   0  0  0  0  0  0  0  0  0  0  0  0
    7.5000   -0.0000    0.0000 O   0  0  0  0  0  0  0  0  0  0  0  0
    6.0000   -2.5981    0.0000 C   0  0  0  0  0  0  0  0  0  0  0  0
    7.5000   -2.5981    0.0000 C   0  0  0  0  0  0  0  0  0  0  0  0
    5.2500   -3.8971    0.0000 C   0  0  0  0  0  0  0  0  0  0  0  0
  1  2  1  0
  2  3  1  0
  3  4  1  0
  4  5  1  0
  5  6  2  0
  5  7  1  0
  7  8  1  0
  8  9  1  0
  9 10  2  0
 10 11  1  0
 11 12  2  0
 12 13  1  0
 13 14  2  0
 14 15  1  0
 15 16  2  0
 16 17  1  0
 17 18  2  0
 18 19  1  0
 19 20  2  0
 20 21  1  0
 21 22  2  0
 22 23  1  0
 12 24  1  0
 24 25  2  0
  7 26  1  0
 26 27  1  6
 27 28  2  0
 27 29  1  0
 26 30  1  0
 30 31  1  0
 30 32  1  0
 25  9  1  0
 18 13  1  0
 23 19  1  0
M  END
>  <assay_description>  (138) 
Inhibition of human BSEP expressed in baculovirus transfected fall armyworm Sf21 cell membranes vesicles assessed as reduction in ATP-dependent [3H]-taurocholate transport into vesicles incubated for 5 mins by Topcount based rapid filtration method

>  <molecule_pref_name>  (138) 
VALSARTAN

>  <canonical_smiles>  (138) 
CCCCC(=O)N(Cc1ccc(-c2ccccc2-c2nnn[nH]2)cc1)[C@H](C(=O)O)C(C)C

>  <pchembl_value>  (138) 
4.51

>  <standard_type>  (138) 
IC50

>  <standard_relation>  (138) 
=

>  <standard_value>  (138) 
31070.0

>  <standard_units>  (138) 
nM

>  <target_pref_name>  (138) 
Bile salt export pump

>  <target_organism>  (138) 
Homo sapiens

$$$$
CHEMBL42
     RDKit          2D

 23 26  0  0  0  0  0  0  0  0999 V2000
   -7.5348   -1.1367    0.0000 C   0  0  0  0  0  0  0  0  0  0  0  0
   -6.0724   -1.4704    0.0000 N   0  0  0  0  0  0  0  0  0  0  0  0
   -5.0522   -0.3709    0.0000 C   0  0  0  0  0  0  0  0  0  0  0  0
   -3.5898   -0.7046    0.0000 C   0  0  0  0  0  0  0  0  0  0  0  0
   -3.1476   -2.1380    0.0000 N   0  0  0  0  0  0  0  0  0  0  0  0
   -1.6852   -2.4718    0.0000 C   0  0  0  0  0  0  0  0  0  0  0  0
   -1.3515   -3.9342    0.0000 N   0  0  0  0  0  0  0  0  0  0  0  0
   -0.0000   -4.5850    0.0000 C   0  0  0  0  0  0  0  0  0  0  0  0
   -0.1121   -6.0808    0.0000 C   0  0  0  0  0  0  0  0  0  0  0  0
    1.1273   -6.9258    0.0000 C   0  0  0  0  0  0  0  0  0  0  0  0
    1.0152   -8.4216    0.0000 Cl  0  0  0  0  0  0  0  0  0  0  0  0
    2.4787   -6.2750    0.0000 C   0  0  0  0  0  0  0  0  0  0  0  0
    2.5908   -4.7792    0.0000 C   0  0  0  0  0  0  0  0  0  0  0  0
    1.3515   -3.9342    0.0000 C   0  0  0  0  0  0  0  0  0  0  0  0
    1.6852   -2.4718    0.0000 N   0  0  0  0  0  0  0  0  0  0  0  0
    0.7500   -1.2990    0.0000 C   0  0  0  0  0  0  0  0  0  0  0  0
    1.5000    0.0000    0.0000 C   0  0  0  0  0  0  0  0  0  0  0  0
    0.7500    1.2990    0.0000 C   0  0  0  0  0  0  0  0  0  0  0  0
   -0.7500    1.2990    0.0000 C   0  0  0  0  0  0  0  0  0  0  0  0
   -1.5000    0.0000    0.0000 C   0  0  0  0  0  0  0  0  0  0  0  0
   -0.7500   -1.2990    0.0000 C   0  0  0  0  0  0  0  0  0  0  0  0
   -4.1679   -3.2376    0.0000 C   0  0  0  0  0  0  0  0  0  0  0  0
   -5.6303   -2.9038    0.0000 C   0  0  0  0  0  0  0  0  0  0  0  0
  1  2  1  0
  2  3  1  0
  3  4  1  0
  4  5  1  0
  5  6  1  0
  6  7  2  0
  7  8  1  0
  8  9  2  0
  9 10  1  0
 10 11  1  0
 10 12  2  0
 12 13  1  0
 13 14  2  0
 14 15  1  0
 15 16  1  0
 16 17  2  0
 17 18  1  0
 18 19  2  0
 19 20  1  0
 20 21  2  0
  5 22  1  0
 22 23  1  0
 23  2  1  0
 21  6  1  0
 14  8  1  0
 21 16  1  0
M  END
>  <assay_description>  (139) 
Inhibition of human BSEP expressed in baculovirus transfected fall armyworm Sf21 cell membranes vesicles assessed as reduction in ATP-dependent [3H]-taurocholate transport into vesicles incubated for 5 mins by Topcount based rapid filtration method

>  <molecule_pref_name>  (139) 
CLOZAPINE

>  <canonical_smiles>  (139) 
CN1CCN(C2=Nc3cc(Cl)ccc3Nc3ccccc32)CC1

>  <pchembl_value>  (139) 
4.12

>  <standard_type>  (139) 
IC50

>  <standard_relation>  (139) 
=

>  <standard_value>  (139) 
75140.0

>  <standard_units>  (139) 
nM

>  <target_pref_name>  (139) 
Bile salt export pump

>  <target_organism>  (139) 
Homo sapiens

$$$$
CHEMBL1086
     RDKit          2D

 25 26  0  0  0  0  0  0  0  0999 V2000
   -6.0000   -7.7942    0.0000 C   0  0  0  0  0  0  0  0  0  0  0  0
   -5.2500   -6.4952    0.0000 C   0  0  0  0  0  0  0  0  0  0  0  0
   -3.7500   -6.4952    0.0000 C   0  0  0  0  0  0  0  0  0  0  0  0
   -3.0000   -5.1962    0.0000 C   0  0  0  0  0  0  0  0  0  0  0  0
   -1.5000   -5.1962    0.0000 O   0  0  0  0  0  0  0  0  0  0  0  0
   -0.7500   -3.8971    0.0000 C   0  0  0  0  0  0  0  0  0  0  0  0
    0.7500   -3.8971    0.0000 C   0  0  0  0  0  0  0  0  0  0  0  0
    1.5000   -2.5981    0.0000 C   0  0  0  0  0  0  0  0  0  0  0  0
    3.0000   -2.5981    0.0000 C   0  0  0  0  0  0  0  0  0  0  0  0
    3.7500   -1.2990    0.0000 O   0  0  0  0  0  0  0  0  0  0  0  0
    3.7500   -3.8971    0.0000 N   0  0  0  0  0  0  0  0  0  0  0  0
    5.2500   -3.8971    0.0000 C   0  0  0  0  0  0  0  0  0  0  0  0
    6.0000   -5.1962    0.0000 C   0  0  0  0  0  0  0  0  0  0  0  0
    7.5000   -5.1962    0.0000 N   0  0  0  0  0  0  0  0  0  0  0  0
    8.2500   -6.4952    0.0000 C   0  0  0  0  0  0  0  0  0  0  0  0
    9.7500   -6.4952    0.0000 C   0  0  0  0  0  0  0  0  0  0  0  0
    8.2500   -3.8971    0.0000 C   0  0  0  0  0  0  0  0  0  0  0  0
    9.7500   -3.8971    0.0000 C   0  0  0  0  0  0  0  0  0  0  0  0
    0.7500   -1.2990    0.0000 C   0  0  0  0  0  0  0  0  0  0  0  0
    1.5000    0.0000    0.0000 C   0  0  0  0  0  0  0  0  0  0  0  0
    0.7500    1.2990    0.0000 C   0  0  0  0  0  0  0  0  0  0  0  0
   -0.7500    1.2990    0.0000 C   0  0  0  0  0  0  0  0  0  0  0  0
   -1.5000    0.0000    0.0000 C   0  0  0  0  0  0  0  0  0  0  0  0
   -0.7500   -1.2990    0.0000 C   0  0  0  0  0  0  0  0  0  0  0  0
   -1.5000   -2.5981    0.0000 N   0  0  0  0  0  0  0  0  0  0  0  0
  1  2  1  0
  2  3  1  0
  3  4  1  0
  4  5  1  0
  5  6  1  0
  6  7  2  0
  7  8  1  0
  8  9  1  0
  9 10  2  0
  9 11  1  0
 11 12  1  0
 12 13  1  0
 13 14  1  0
 14 15  1  0
 15 16  1  0
 14 17  1  0
 17 18  1  0
  8 19  2  0
 19 20  1  0
 20 21  2  0
 21 22  1  0
 22 23  2  0
 23 24  1  0
 24 25  2  0
 25  6  1  0
 24 19  1  0
M  END
>  <assay_description>  (140) 
Inhibition of human BSEP expressed in baculovirus transfected fall armyworm Sf21 cell membranes vesicles assessed as reduction in ATP-dependent [3H]-taurocholate transport into vesicles incubated for 5 mins by Topcount based rapid filtration method

>  <molecule_pref_name>  (140) 
DIBUCAINE

>  <canonical_smiles>  (140) 
CCCCOc1cc(C(=O)NCCN(CC)CC)c2ccccc2n1

>  <pchembl_value>  (140) 
4.38

>  <standard_type>  (140) 
IC50

>  <standard_relation>  (140) 
=

>  <standard_value>  (140) 
41650.0

>  <standard_units>  (140) 
nM

>  <target_pref_name>  (140) 
Bile salt export pump

>  <target_organism>  (140) 
Homo sapiens

$$$$
CHEMBL908
     RDKit          2D

 21 23  0  0  0  0  0  0  0  0999 V2000
    7.5000   -5.1962    0.0000 C   0  0  0  0  0  0  0  0  0  0  0  0
    6.0000   -5.1962    0.0000 N   0  0  0  0  0  0  0  0  0  0  0  0
    5.2500   -6.4952    0.0000 C   0  0  0  0  0  0  0  0  0  0  0  0
    5.2500   -3.8971    0.0000 C   0  0  0  0  0  0  0  0  0  0  0  0
    3.7500   -3.8971    0.0000 C   0  0  0  0  0  0  0  0  0  0  0  0
    3.0000   -2.5981    0.0000 C   0  0  0  0  0  0  0  0  0  0  0  0
    1.5000   -2.5981    0.0000 C   0  0  0  0  0  0  0  0  0  0  0  0
    0.7500   -1.2990    0.0000 C   0  0  0  0  0  0  0  0  0  0  0  0
    1.5000    0.0000    0.0000 C   0  0  0  0  0  0  0  0  0  0  0  0
    0.7500    1.2990    0.0000 C   0  0  0  0  0  0  0  0  0  0  0  0
   -0.7500    1.2990    0.0000 C   0  0  0  0  0  0  0  0  0  0  0  0
   -1.5000    0.0000    0.0000 C   0  0  0  0  0  0  0  0  0  0  0  0
   -0.7500   -1.2990    0.0000 C   0  0  0  0  0  0  0  0  0  0  0  0
   -1.5000   -2.5981    0.0000 S   0  0  0  0  0  0  0  0  0  0  0  0
   -0.7500   -3.8971    0.0000 C   0  0  0  0  0  0  0  0  0  0  0  0
   -1.5000   -5.1962    0.0000 C   0  0  0  0  0  0  0  0  0  0  0  0
   -0.7500   -6.4952    0.0000 C   0  0  0  0  0  0  0  0  0  0  0  0
    0.7500   -6.4952    0.0000 C   0  0  0  0  0  0  0  0  0  0  0  0
    1.5000   -7.7942    0.0000 Cl  0  0  0  0  0  0  0  0  0  0  0  0
    1.5000   -5.1962    0.0000 C   0  0  0  0  0  0  0  0  0  0  0  0
    0.7500   -3.8971    0.0000 C   0  0  0  0  0  0  0  0  0  0  0  0
  1  2  1  0
  2  3  1  0
  2  4  1  0
  4  5  1  0
  5  6  1  0
  6  7  2  0
  7  8  1  0
  8  9  2  0
  9 10  1  0
 10 11  2  0
 11 12  1  0
 12 13  2  0
 13 14  1  0
 14 15  1  0
 15 16  2  0
 16 17  1  0
 17 18  2  0
 18 19  1  0
 18 20  1  0
 20 21  2  0
 21  7  1  0
 13  8  1  0
 21 15  1  0
M  END
>  <assay_description>  (141) 
Inhibition of human BSEP expressed in baculovirus transfected fall armyworm Sf21 cell membranes vesicles assessed as reduction in ATP-dependent [3H]-taurocholate transport into vesicles incubated for 5 mins by Topcount based rapid filtration method

>  <molecule_pref_name>  (141) 
CHLORPROTHIXENE

>  <canonical_smiles>  (141) 
CN(C)CC/C=C1/c2ccccc2Sc2ccc(Cl)cc21

>  <pchembl_value>  (141) 
4.56

>  <standard_type>  (141) 
IC50

>  <standard_relation>  (141) 
=

>  <standard_value>  (141) 
27470.0

>  <standard_units>  (141) 
nM

>  <target_pref_name>  (141) 
Bile salt export pump

>  <target_organism>  (141) 
Homo sapiens

$$$$
CHEMBL71
     RDKit          2D

 21 23  0  0  0  0  0  0  0  0999 V2000
    7.5000   -5.1962    0.0000 C   0  0  0  0  0  0  0  0  0  0  0  0
    6.0000   -5.1962    0.0000 N   0  0  0  0  0  0  0  0  0  0  0  0
    5.2500   -6.4952    0.0000 C   0  0  0  0  0  0  0  0  0  0  0  0
    5.2500   -3.8971    0.0000 C   0  0  0  0  0  0  0  0  0  0  0  0
    3.7500   -3.8971    0.0000 C   0  0  0  0  0  0  0  0  0  0  0  0
    3.0000   -2.5981    0.0000 C   0  0  0  0  0  0  0  0  0  0  0  0
    1.5000   -2.5981    0.0000 N   0  0  0  0  0  0  0  0  0  0  0  0
    0.7500   -1.2990    0.0000 C   0  0  0  0  0  0  0  0  0  0  0  0
    1.5000    0.0000    0.0000 C   0  0  0  0  0  0  0  0  0  0  0  0
    0.7500    1.2990    0.0000 C   0  0  0  0  0  0  0  0  0  0  0  0
   -0.7500    1.2990    0.0000 C   0  0  0  0  0  0  0  0  0  0  0  0
   -1.5000    0.0000    0.0000 C   0  0  0  0  0  0  0  0  0  0  0  0
   -0.7500   -1.2990    0.0000 C   0  0  0  0  0  0  0  0  0  0  0  0
   -1.5000   -2.5981    0.0000 S   0  0  0  0  0  0  0  0  0  0  0  0
   -0.7500   -3.8971    0.0000 C   0  0  0  0  0  0  0  0  0  0  0  0
   -1.5000   -5.1962    0.0000 C   0  0  0  0  0  0  0  0  0  0  0  0
   -0.7500   -6.4952    0.0000 C   0  0  0  0  0  0  0  0  0  0  0  0
    0.7500   -6.4952    0.0000 C   0  0  0  0  0  0  0  0  0  0  0  0
    1.5000   -7.7942    0.0000 Cl  0  0  0  0  0  0  0  0  0  0  0  0
    1.5000   -5.1962    0.0000 C   0  0  0  0  0  0  0  0  0  0  0  0
    0.7500   -3.8971    0.0000 C   0  0  0  0  0  0  0  0  0  0  0  0
  1  2  1  0
  2  3  1  0
  2  4  1  0
  4  5  1  0
  5  6  1  0
  6  7  1  0
  7  8  1  0
  8  9  2  0
  9 10  1  0
 10 11  2  0
 11 12  1  0
 12 13  2  0
 13 14  1  0
 14 15  1  0
 15 16  2  0
 16 17  1  0
 17 18  2  0
 18 19  1  0
 18 20  1  0
 20 21  2  0
 21  7  1  0
 13  8  1  0
 21 15  1  0
M  END
>  <assay_description>  (142) 
Inhibition of human BSEP expressed in baculovirus transfected fall armyworm Sf21 cell membranes vesicles assessed as reduction in ATP-dependent [3H]-taurocholate transport into vesicles incubated for 5 mins by Topcount based rapid filtration method

>  <molecule_pref_name>  (142) 
CHLORPROMAZINE

>  <canonical_smiles>  (142) 
CN(C)CCCN1c2ccccc2Sc2ccc(Cl)cc21

>  <pchembl_value>  (142) 
4.04

>  <standard_type>  (142) 
IC50

>  <standard_relation>  (142) 
=

>  <standard_value>  (142) 
90970.0

>  <standard_units>  (142) 
nM

>  <target_pref_name>  (142) 
Bile salt export pump

>  <target_organism>  (142) 
Homo sapiens

$$$$
CHEMBL415
     RDKit          2D

 22 24  0  0  0  0  0  0  0  0999 V2000
    8.1129   -3.6696    0.0000 C   0  0  0  0  0  0  0  0  0  0  0  0
    6.6505   -4.0034    0.0000 N   0  0  0  0  0  0  0  0  0  0  0  0
    6.2084   -5.4367    0.0000 C   0  0  0  0  0  0  0  0  0  0  0  0
    5.6303   -2.9038    0.0000 C   0  0  0  0  0  0  0  0  0  0  0  0
    4.1679   -3.2376    0.0000 C   0  0  0  0  0  0  0  0  0  0  0  0
    3.1476   -2.1380    0.0000 C   0  0  0  0  0  0  0  0  0  0  0  0
    1.6852   -2.4718    0.0000 N   0  0  0  0  0  0  0  0  0  0  0  0
    0.7500   -1.2990    0.0000 C   0  0  0  0  0  0  0  0  0  0  0  0
    1.5000    0.0000    0.0000 C   0  0  0  0  0  0  0  0  0  0  0  0
    0.7500    1.2990    0.0000 C   0  0  0  0  0  0  0  0  0  0  0  0
   -0.7500    1.2990    0.0000 C   0  0  0  0  0  0  0  0  0  0  0  0
   -1.5000    0.0000    0.0000 C   0  0  0  0  0  0  0  0  0  0  0  0
   -0.7500   -1.2990    0.0000 C   0  0  0  0  0  0  0  0  0  0  0  0
   -1.6852   -2.4718    0.0000 C   0  0  0  0  0  0  0  0  0  0  0  0
   -1.3515   -3.9342    0.0000 C   0  0  0  0  0  0  0  0  0  0  0  0
   -0.0000   -4.5850    0.0000 C   0  0  0  0  0  0  0  0  0  0  0  0
   -0.1121   -6.0808    0.0000 C   0  0  0  0  0  0  0  0  0  0  0  0
    1.1273   -6.9258    0.0000 C   0  0  0  0  0  0  0  0  0  0  0  0
    2.4787   -6.2750    0.0000 C   0  0  0  0  0  0  0  0  0  0  0  0
    3.7181   -7.1199    0.0000 Cl  0  0  0  0  0  0  0  0  0  0  0  0
    2.5908   -4.7792    0.0000 C   0  0  0  0  0  0  0  0  0  0  0  0
    1.3515   -3.9342    0.0000 C   0  0  0  0  0  0  0  0  0  0  0  0
  1  2  1  0
  2  3  1  0
  2  4  1  0
  4  5  1  0
  5  6  1  0
  6  7  1  0
  7  8  1  0
  8  9  2  0
  9 10  1  0
 10 11  2  0
 11 12  1  0
 12 13  2  0
 13 14  1  0
 14 15  1  0
 15 16  1  0
 16 17  2  0
 17 18  1  0
 18 19  2  0
 19 20  1  0
 19 21  1  0
 21 22  2  0
 22  7  1  0
 13  8  1  0
 22 16  1  0
M  END
>  <assay_description>  (143) 
Inhibition of human BSEP expressed in baculovirus transfected fall armyworm Sf21 cell membranes vesicles assessed as reduction in ATP-dependent [3H]-taurocholate transport into vesicles incubated for 5 mins by Topcount based rapid filtration method

>  <molecule_pref_name>  (143) 
CLOMIPRAMINE

>  <canonical_smiles>  (143) 
CN(C)CCCN1c2ccccc2CCc2ccc(Cl)cc21

>  <pchembl_value>  (143) 
4.43

>  <standard_type>  (143) 
IC50

>  <standard_relation>  (143) 
=

>  <standard_value>  (143) 
37400.0

>  <standard_units>  (143) 
nM

>  <target_pref_name>  (143) 
Bile salt export pump

>  <target_organism>  (143) 
Homo sapiens

$$$$
CHEMBL49
     RDKit          2D

 28 31  0  0  0  0  0  0  0  0999 V2000
    3.7923    3.2638    0.0000 O   0  0  0  0  0  0  0  0  0  0  0  0
    2.3250    2.9520    0.0000 C   0  0  0  0  0  0  0  0  0  0  0  0
    1.8615    1.5254    0.0000 C   0  0  0  0  0  0  0  0  0  0  0  0
    0.3943    1.2135    0.0000 C   0  0  0  0  0  0  0  0  0  0  0  0
    1.2760    0.0000    0.0000 C   0  0  0  0  0  0  0  0  0  0  0  0
    0.3943   -1.2135    0.0000 C   0  0  0  0  0  0  0  0  0  0  0  0
   -1.0323   -0.7500    0.0000 C   0  0  0  0  0  0  0  0  0  0  0  0
   -1.0323    0.7500    0.0000 C   0  0  0  0  0  0  0  0  0  0  0  0
   -0.6094    2.3282    0.0000 C   0  0  0  0  0  0  0  0  0  0  0  0
   -0.1459    3.7548    0.0000 C   0  0  0  0  0  0  0  0  0  0  0  0
   -1.1496    4.8695    0.0000 O   0  0  0  0  0  0  0  0  0  0  0  0
    1.3213    4.0667    0.0000 N   0  0  0  0  0  0  0  0  0  0  0  0
    1.7849    5.4933    0.0000 C   0  0  0  0  0  0  0  0  0  0  0  0
    3.2521    5.8051    0.0000 C   0  0  0  0  0  0  0  0  0  0  0  0
    3.7156    7.2317    0.0000 C   0  0  0  0  0  0  0  0  0  0  0  0
    5.1828    7.5436    0.0000 C   0  0  0  0  0  0  0  0  0  0  0  0
    5.6464    8.9702    0.0000 N   0  0  0  0  0  0  0  0  0  0  0  0
    7.1136    9.2821    0.0000 C   0  0  0  0  0  0  0  0  0  0  0  0
    7.5771   10.7086    0.0000 C   0  0  0  0  0  0  0  0  0  0  0  0
    6.5734   11.8234    0.0000 N   0  0  0  0  0  0  0  0  0  0  0  0
    7.0369   13.2499    0.0000 C   0  0  0  0  0  0  0  0  0  0  0  0
    8.5042   13.5618    0.0000 N   0  0  0  0  0  0  0  0  0  0  0  0
    8.9677   14.9884    0.0000 C   0  0  0  0  0  0  0  0  0  0  0  0
    7.9640   16.1031    0.0000 C   0  0  0  0  0  0  0  0  0  0  0  0
    6.4968   15.7912    0.0000 C   0  0  0  0  0  0  0  0  0  0  0  0
    6.0332   14.3647    0.0000 N   0  0  0  0  0  0  0  0  0  0  0  0
    5.1062   11.5115    0.0000 C   0  0  0  0  0  0  0  0  0  0  0  0
    4.6427   10.0849    0.0000 C   0  0  0  0  0  0  0  0  0  0  0  0
  1  2  2  0
  2  3  1  0
  3  4  1  0
  4  5  1  0
  5  6  1  0
  6  7  1  0
  7  8  1  0
  4  9  1  0
  9 10  1  0
 10 11  2  0
 10 12  1  0
 12 13  1  0
 13 14  1  0
 14 15  1  0
 15 16  1  0
 16 17  1  0
 17 18  1  0
 18 19  1  0
 19 20  1  0
 20 21  1  0
 21 22  2  0
 22 23  1  0
 23 24  2  0
 24 25  1  0
 25 26  2  0
 20 27  1  0
 27 28  1  0
 12  2  1  0
 28 17  1  0
  8  4  1  0
 26 21  1  0
M  END
>  <assay_description>  (144) 
Inhibition of human BSEP expressed in baculovirus transfected fall armyworm Sf21 cell membranes vesicles assessed as reduction in ATP-dependent [3H]-taurocholate transport into vesicles incubated for 5 mins by Topcount based rapid filtration method

>  <molecule_pref_name>  (144) 
BUSPIRONE

>  <canonical_smiles>  (144) 
O=C1CC2(CCCC2)CC(=O)N1CCCCN1CCN(c2ncccn2)CC1

>  <pchembl_value>  (144) 
4.22

>  <standard_type>  (144) 
IC50

>  <standard_relation>  (144) 
=

>  <standard_value>  (144) 
59630.0

>  <standard_units>  (144) 
nM

>  <target_pref_name>  (144) 
Bile salt export pump

>  <target_organism>  (144) 
Homo sapiens

$$$$
CHEMBL253376
     RDKit          2D

 18 19  0  0  0  0  0  0  0  0999 V2000
   -0.7500   -3.8971    0.0000 C   0  0  0  0  0  0  0  0  0  0  0  0
    0.7500   -3.8971    0.0000 N   0  0  0  0  0  0  0  0  0  0  0  0
    1.5000   -2.5981    0.0000 C   0  0  0  0  0  0  0  0  0  0  0  0
    0.7500   -1.2990    0.0000 C   0  0  0  0  0  0  0  0  0  0  0  0
    1.5000    0.0000    0.0000 C   0  0  0  0  0  0  0  0  0  0  0  0
    0.7500    1.2990    0.0000 C   0  0  0  0  0  0  0  0  0  0  0  0
    1.5000    2.5981    0.0000 Br  0  0  0  0  0  0  0  0  0  0  0  0
   -0.7500    1.2990    0.0000 C   0  0  0  0  0  0  0  0  0  0  0  0
   -1.5000    0.0000    0.0000 C   0  0  0  0  0  0  0  0  0  0  0  0
   -3.0000    0.0000    0.0000 Br  0  0  0  0  0  0  0  0  0  0  0  0
   -0.7500   -1.2990    0.0000 C   0  0  0  0  0  0  0  0  0  0  0  0
   -1.5000   -2.5981    0.0000 N   0  0  0  0  0  0  0  0  0  0  0  0
    1.5000   -5.1962    0.0000 C   0  0  0  0  0  0  0  0  0  0  0  0
    3.0000   -5.1962    0.0000 C   0  0  0  0  0  0  0  0  0  0  0  0
    3.7500   -6.4952    0.0000 C   0  0  0  0  0  0  0  0  0  0  0  0
    3.0000   -7.7942    0.0000 C   0  0  0  0  0  0  0  0  0  0  0  0
    1.5000   -7.7942    0.0000 C   0  0  0  0  0  0  0  0  0  0  0  0
    0.7500   -6.4952    0.0000 C   0  0  0  0  0  0  0  0  0  0  0  0
  1  2  1  0
  2  3  1  0
  3  4  1  0
  4  5  2  0
  5  6  1  0
  6  7  1  0
  6  8  2  0
  8  9  1  0
  9 10  1  0
  9 11  2  0
 11 12  1  0
  2 13  1  0
 13 14  1  0
 14 15  1  0
 15 16  1  0
 16 17  1  0
 17 18  1  0
 11  4  1  0
 18 13  1  0
M  END
>  <assay_description>  (145) 
Inhibition of human BSEP expressed in baculovirus transfected fall armyworm Sf21 cell membranes vesicles assessed as reduction in ATP-dependent [3H]-taurocholate transport into vesicles incubated for 5 mins by Topcount based rapid filtration method

>  <molecule_pref_name>  (145) 
BROMHEXINE

>  <canonical_smiles>  (145) 
CN(Cc1cc(Br)cc(Br)c1N)C1CCCCC1

>  <pchembl_value>  (145) 
4.69

>  <standard_type>  (145) 
IC50

>  <standard_relation>  (145) 
=

>  <standard_value>  (145) 
20270.0

>  <standard_units>  (145) 
nM

>  <target_pref_name>  (145) 
Bile salt export pump

>  <target_organism>  (145) 
Homo sapiens

$$$$
CHEMBL942
     RDKit          2D

 27 29  0  0  0  0  0  0  0  0999 V2000
    5.2500   -1.2990    0.0000 C   0  0  0  0  0  0  0  0  0  0  0  0
    3.7500   -1.2990    0.0000 C   0  0  0  0  0  0  0  0  0  0  0  0
    3.0000   -2.5981    0.0000 O   0  0  0  0  0  0  0  0  0  0  0  0
    3.0000    0.0000    0.0000 O   0  0  0  0  0  0  0  0  0  0  0  0
    1.5000    0.0000    0.0000 C   0  0  0  0  0  0  0  0  0  0  0  0
    0.7500   -1.2990    0.0000 C   0  0  0  0  0  0  0  0  0  0  0  0
   -0.7500   -1.2990    0.0000 C   0  0  0  0  0  0  0  0  0  0  0  0
   -1.5000    0.0000    0.0000 C   0  0  0  0  0  0  0  0  0  0  0  0
   -3.0000    0.0000    0.0000 C   0  0  0  0  0  0  0  0  0  0  0  0
   -3.7500    1.2990    0.0000 C   0  0  0  0  0  0  0  0  0  0  0  0
   -3.0000    2.5981    0.0000 C   0  0  0  0  0  0  0  0  0  0  0  0
   -3.7500    3.8971    0.0000 C   0  0  0  0  0  0  0  0  0  0  0  0
   -5.2500    3.8971    0.0000 C   0  0  0  0  0  0  0  0  0  0  0  0
   -6.0000    5.1962    0.0000 O   0  0  0  0  0  0  0  0  0  0  0  0
   -5.2500    6.4952    0.0000 C   0  0  0  0  0  0  0  0  0  0  0  0
   -6.0000    7.7942    0.0000 C   0  0  0  0  0  0  0  0  0  0  0  0
   -3.7500    6.4952    0.0000 O   0  0  0  0  0  0  0  0  0  0  0  0
   -6.0000    2.5981    0.0000 C   0  0  0  0  0  0  0  0  0  0  0  0
   -5.2500    1.2990    0.0000 C   0  0  0  0  0  0  0  0  0  0  0  0
   -3.7500   -1.2990    0.0000 C   0  0  0  0  0  0  0  0  0  0  0  0
   -5.2500   -1.2990    0.0000 C   0  0  0  0  0  0  0  0  0  0  0  0
   -6.0000   -2.5981    0.0000 C   0  0  0  0  0  0  0  0  0  0  0  0
   -5.2500   -3.8971    0.0000 C   0  0  0  0  0  0  0  0  0  0  0  0
   -3.7500   -3.8971    0.0000 C   0  0  0  0  0  0  0  0  0  0  0  0
   -3.0000   -2.5981    0.0000 N   0  0  0  0  0  0  0  0  0  0  0  0
   -0.7500    1.2990    0.0000 C   0  0  0  0  0  0  0  0  0  0  0  0
    0.7500    1.2990    0.0000 C   0  0  0  0  0  0  0  0  0  0  0  0
  1  2  1  0
  2  3  2  0
  2  4  1  0
  4  5  1  0
  5  6  2  0
  6  7  1  0
  7  8  2  0
  8  9  1  0
  9 10  1  0
 10 11  2  0
 11 12  1  0
 12 13  2  0
 13 14  1  0
 14 15  1  0
 15 16  1  0
 15 17  2  0
 13 18  1  0
 18 19  2  0
  9 20  1  0
 20 21  2  0
 21 22  1  0
 22 23  2  0
 23 24  1  0
 24 25  2  0
  8 26  1  0
 26 27  2  0
 27  5  1  0
 19 10  1  0
 25 20  1  0
M  END
>  <assay_description>  (146) 
Inhibition of human BSEP expressed in baculovirus transfected fall armyworm Sf21 cell membranes vesicles assessed as reduction in ATP-dependent [3H]-taurocholate transport into vesicles incubated for 5 mins by Topcount based rapid filtration method

>  <molecule_pref_name>  (146) 
BISACODYL

>  <canonical_smiles>  (146) 
CC(=O)Oc1ccc(C(c2ccc(OC(C)=O)cc2)c2ccccn2)cc1

>  <pchembl_value>  (146) 
4.25

>  <standard_type>  (146) 
IC50

>  <standard_relation>  (146) 
=

>  <standard_value>  (146) 
56360.0

>  <standard_units>  (146) 
nM

>  <target_pref_name>  (146) 
Bile salt export pump

>  <target_organism>  (146) 
Homo sapiens

$$$$
CHEMBL1201039
     RDKit          2D

 26 28  0  0  0  0  0  0  0  0999 V2000
    4.5000    0.0000    0.0000 N   0  0  0  0  0  0  0  0  0  0  0  0
    3.0000    0.0000    0.0000 S   0  0  0  0  0  0  0  0  0  0  0  0
    3.0000   -1.5000    0.0000 O   0  0  0  0  0  0  0  0  0  0  0  0
    3.0000    1.5000    0.0000 O   0  0  0  0  0  0  0  0  0  0  0  0
    1.5000    0.0000    0.0000 C   0  0  0  0  0  0  0  0  0  0  0  0
    0.7500   -1.2990    0.0000 C   0  0  0  0  0  0  0  0  0  0  0  0
   -0.7500   -1.2990    0.0000 C   0  0  0  0  0  0  0  0  0  0  0  0
   -1.5000    0.0000    0.0000 C   0  0  0  0  0  0  0  0  0  0  0  0
   -0.7500    1.2990    0.0000 C   0  0  0  0  0  0  0  0  0  0  0  0
    0.7500    1.2990    0.0000 C   0  0  0  0  0  0  0  0  0  0  0  0
    1.5000    2.5981    0.0000 Cl  0  0  0  0  0  0  0  0  0  0  0  0
   -3.0000    0.0000    0.0000 N   0  0  0  0  0  0  0  0  0  0  0  0
   -3.7500   -1.2990    0.0000 C   0  0  0  0  0  0  0  0  0  0  0  0
   -5.2500   -1.2990    0.0000 C   0  0  0  0  0  0  0  0  0  0  0  0
   -6.0000    0.0000    0.0000 S   0  0  0  0  0  0  0  0  0  0  0  0
   -7.5000   -0.0000    0.0000 C   0  0  0  0  0  0  0  0  0  0  0  0
   -8.2500    1.2990    0.0000 C   0  0  0  0  0  0  0  0  0  0  0  0
   -7.5000    2.5981    0.0000 C   0  0  0  0  0  0  0  0  0  0  0  0
   -8.2500    3.8971    0.0000 C   0  0  0  0  0  0  0  0  0  0  0  0
   -9.7500    3.8971    0.0000 C   0  0  0  0  0  0  0  0  0  0  0  0
  -10.5000    2.5981    0.0000 C   0  0  0  0  0  0  0  0  0  0  0  0
   -9.7500    1.2990    0.0000 C   0  0  0  0  0  0  0  0  0  0  0  0
   -3.0000   -2.5981    0.0000 N   0  0  0  0  0  0  0  0  0  0  0  0
   -1.5000   -2.5981    0.0000 S   0  0  0  0  0  0  0  0  0  0  0  0
   -0.0905   -3.1111    0.0000 O   0  0  0  0  0  0  0  0  0  0  0  0
   -1.7605   -4.0753    0.0000 O   0  0  0  0  0  0  0  0  0  0  0  0
  1  2  1  0
  2  3  2  0
  2  4  2  0
  2  5  1  0
  5  6  2  0
  6  7  1  0
  7  8  2  0
  8  9  1  0
  9 10  2  0
 10 11  1  0
  8 12  1  0
 12 13  2  0
 13 14  1  0
 14 15  1  0
 15 16  1  0
 16 17  1  0
 17 18  2  0
 18 19  1  0
 19 20  2  0
 20 21  1  0
 21 22  2  0
 13 23  1  0
 23 24  1  0
 24 25  2  0
 24 26  2  0
 10  5  1  0
 22 17  1  0
 24  7  1  0
M  END
>  <assay_description>  (147) 
Inhibition of human BSEP expressed in baculovirus transfected fall armyworm Sf21 cell membranes vesicles assessed as reduction in ATP-dependent [3H]-taurocholate transport into vesicles incubated for 5 mins by Topcount based rapid filtration method

>  <molecule_pref_name>  (147) 
BENZTHIAZIDE

>  <canonical_smiles>  (147) 
NS(=O)(=O)c1cc2c(cc1Cl)N=C(CSCc1ccccc1)NS2(=O)=O

>  <pchembl_value>  (147) 
4.24

>  <standard_type>  (147) 
IC50

>  <standard_relation>  (147) 
=

>  <standard_value>  (147) 
57430.0

>  <standard_units>  (147) 
nM

>  <target_pref_name>  (147) 
Bile salt export pump

>  <target_organism>  (147) 
Homo sapiens

$$$$
CHEMBL1684
     RDKit          2D

 27 29  0  0  0  0  0  0  0  0999 V2000
    4.5000   -0.0000    0.0000 N   0  0  0  0  0  0  0  0  0  0  0  0
    3.0000   -0.0000    0.0000 S   0  0  0  0  0  0  0  0  0  0  0  0
    3.0000   -1.5000    0.0000 O   0  0  0  0  0  0  0  0  0  0  0  0
    3.1481    1.2059    0.0000 O   0  0  0  0  0  0  0  0  0  0  0  0
    1.5000    0.0000    0.0000 C   0  0  0  0  0  0  0  0  0  0  0  0
    0.7500   -1.2990    0.0000 C   0  0  0  0  0  0  0  0  0  0  0  0
   -0.7500   -1.2990    0.0000 C   0  0  0  0  0  0  0  0  0  0  0  0
   -1.5000    0.0000    0.0000 C   0  0  0  0  0  0  0  0  0  0  0  0
   -0.7500    1.2990    0.0000 C   0  0  0  0  0  0  0  0  0  0  0  0
    0.7500    1.2990    0.0000 C   0  0  0  0  0  0  0  0  0  0  0  0
    1.5000    2.5981    0.0000 C   0  0  0  0  0  0  0  0  0  0  0  0
    2.2500    3.8971    0.0000 F   0  0  0  0  0  0  0  0  0  0  0  0
    0.2010    3.3481    0.0000 F   0  0  0  0  0  0  0  0  0  0  0  0
    2.6184    2.1234    0.0000 F   0  0  0  0  0  0  0  0  0  0  0  0
   -3.0000    0.0000    0.0000 N   0  0  0  0  0  0  0  0  0  0  0  0
   -3.7500   -1.2990    0.0000 C   0  0  0  0  0  0  0  0  0  0  0  0
   -5.2500   -1.2990    0.0000 C   0  0  0  0  0  0  0  0  0  0  0  0
   -6.0000    0.0000    0.0000 C   0  0  0  0  0  0  0  0  0  0  0  0
   -5.2500    1.2990    0.0000 C   0  0  0  0  0  0  0  0  0  0  0  0
   -6.0000    2.5981    0.0000 C   0  0  0  0  0  0  0  0  0  0  0  0
   -7.5000    2.5981    0.0000 C   0  0  0  0  0  0  0  0  0  0  0  0
   -8.2500    1.2990    0.0000 C   0  0  0  0  0  0  0  0  0  0  0  0
   -7.5000    0.0000    0.0000 C   0  0  0  0  0  0  0  0  0  0  0  0
   -3.0000   -2.5981    0.0000 N   0  0  0  0  0  0  0  0  0  0  0  0
   -1.5000   -2.5981    0.0000 S   0  0  0  0  0  0  0  0  0  0  0  0
   -0.0905   -3.1111    0.0000 O   0  0  0  0  0  0  0  0  0  0  0  0
   -1.7605   -4.0753    0.0000 O   0  0  0  0  0  0  0  0  0  0  0  0
  1  2  1  0
  2  3  2  0
  2  4  2  0
  2  5  1  0
  5  6  2  0
  6  7  1  0
  7  8  2  0
  8  9  1  0
  9 10  2  0
 10 11  1  0
 11 12  1  0
 11 13  1  0
 11 14  1  0
  8 15  1  0
 15 16  1  0
 16 17  1  0
 17 18  1  0
 18 19  2  0
 19 20  1  0
 20 21  2  0
 21 22  1  0
 22 23  2  0
 16 24  1  0
 24 25  1  0
 25 26  2  0
 25 27  2  0
 10  5  1  0
 23 18  1  0
 25  7  1  0
M  END
>  <assay_description>  (148) 
Inhibition of human BSEP expressed in baculovirus transfected fall armyworm Sf21 cell membranes vesicles assessed as reduction in ATP-dependent [3H]-taurocholate transport into vesicles incubated for 5 mins by Topcount based rapid filtration method

>  <molecule_pref_name>  (148) 
BENDROFLUMETHIAZIDE

>  <canonical_smiles>  (148) 
NS(=O)(=O)c1cc2c(cc1C(F)(F)F)NC(Cc1ccccc1)NS2(=O)=O

>  <pchembl_value>  (148) 
4.16

>  <standard_type>  (148) 
IC50

>  <standard_relation>  (148) 
=

>  <standard_value>  (148) 
69550.0

>  <standard_units>  (148) 
nM

>  <target_pref_name>  (148) 
Bile salt export pump

>  <target_organism>  (148) 
Homo sapiens

$$$$
CHEMBL1586
     RDKit          2D

 28 31  0  0  0  0  0  0  0  0999 V2000
   -2.2500   -9.0044    0.0000 C   0  0  0  0  0  0  0  0  0  0  0  0
   -2.2500   -7.5044    0.0000 C   0  0  0  0  0  0  0  0  0  0  0  0
   -1.0365   -6.6227    0.0000 C   0  0  0  0  0  0  0  0  0  0  0  0
   -1.5000   -5.1962    0.0000 C   0  0  0  0  0  0  0  0  0  0  0  0
   -0.7500   -3.8971    0.0000 C   0  0  0  0  0  0  0  0  0  0  0  0
    0.7500   -3.8971    0.0000 C   0  0  0  0  0  0  0  0  0  0  0  0
    1.5000   -2.5981    0.0000 C   0  0  0  0  0  0  0  0  0  0  0  0
    0.7500   -1.2990    0.0000 C   0  0  0  0  0  0  0  0  0  0  0  0
    1.5000    0.0000    0.0000 C   0  0  0  0  0  0  0  0  0  0  0  0
    0.7500    1.2990    0.0000 C   0  0  0  0  0  0  0  0  0  0  0  0
    1.5000    2.5981    0.0000 O   0  0  0  0  0  0  0  0  0  0  0  0
   -0.7500    1.2990    0.0000 C   0  0  0  0  0  0  0  0  0  0  0  0
   -1.5000    0.0000    0.0000 C   0  0  0  0  0  0  0  0  0  0  0  0
   -0.7500   -1.2990    0.0000 C   0  0  0  0  0  0  0  0  0  0  0  0
   -1.6291   -1.1911    0.0000 C   0  0  0  0  0  0  0  0  0  0  0  0
   -1.5000   -2.5981    0.0000 C   0  0  0  0  0  0  0  0  0  0  0  0
   -2.0331   -1.8907    0.0000 Cl  0  0  0  0  0  0  0  0  0  0  0  0
   -3.0000   -2.5981    0.0000 C   0  0  0  0  0  0  0  0  0  0  0  0
   -3.7500   -1.2990    0.0000 O   0  0  0  0  0  0  0  0  0  0  0  0
   -3.7500   -3.8971    0.0000 C   0  0  0  0  0  0  0  0  0  0  0  0
   -3.0000   -5.1962    0.0000 C   0  0  0  0  0  0  0  0  0  0  0  0
   -4.4998   -5.1699    0.0000 C   0  0  0  0  0  0  0  0  0  0  0  0
   -3.4635   -6.6227    0.0000 C   0  0  0  0  0  0  0  0  0  0  0  0
   -4.8980   -6.1842    0.0000 O   0  0  0  0  0  0  0  0  0  0  0  0
   -4.2135   -7.9218    0.0000 C   0  0  0  0  0  0  0  0  0  0  0  0
   -3.4635   -9.2208    0.0000 O   0  0  0  0  0  0  0  0  0  0  0  0
   -5.7135   -7.9218    0.0000 C   0  0  0  0  0  0  0  0  0  0  0  0
   -6.4635   -9.2208    0.0000 O   0  0  0  0  0  0  0  0  0  0  0  0
  2  1  1  6
  2  3  1  0
  4  3  1  6
  4  5  1  0
  5  6  1  1
  6  7  1  0
  7  8  1  0
  8  9  2  0
  9 10  1  0
 10 11  2  0
 10 12  1  0
 12 13  2  0
 13 14  1  0
 14 15  1  6
 14 16  1  0
 16 17  1  1
 16 18  1  0
 18 19  1  6
 18 20  1  0
 20 21  1  0
 21 22  1  6
 21 23  1  0
 23 24  1  1
 23 25  1  0
 25 26  2  0
 25 27  1  0
 27 28  1  0
 23  2  1  0
 21  4  1  0
 16  5  1  0
 14  8  1  0
M  END
>  <assay_description>  (149) 
Inhibition of human BSEP expressed in baculovirus transfected fall armyworm Sf21 cell membranes vesicles assessed as reduction in ATP-dependent [3H]-taurocholate transport into vesicles incubated for 5 mins by Topcount based rapid filtration method

>  <molecule_pref_name>  (149) 
BECLOMETHASONE

>  <canonical_smiles>  (149) 
C[C@H]1C[C@H]2[C@@H]3CCC4=CC(=O)C=C[C@]4(C)[C@@]3(Cl)[C@@H](O)C[C@]2(C)[C@@]1(O)C(=O)CO

>  <pchembl_value>  (149) 
4.63

>  <standard_type>  (149) 
IC50

>  <standard_relation>  (149) 
=

>  <standard_value>  (149) 
23670.0

>  <standard_units>  (149) 
nM

>  <target_pref_name>  (149) 
Bile salt export pump

>  <target_organism>  (149) 
Homo sapiens

$$$$
CHEMBL4092536
     RDKit          2D

 23 25  0  0  0  0  0  0  0  0999 V2000
    1.2990   -5.8573    0.0000 O   0  0  0  0  0  0  0  0  0  0  0  0
   -0.0000   -5.1073    0.0000 C   0  0  0  0  0  0  0  0  0  0  0  0
   -1.2990   -5.8573    0.0000 O   0  0  0  0  0  0  0  0  0  0  0  0
   -0.0000   -3.6073    0.0000 C   0  0  0  0  0  0  0  0  0  0  0  0
    1.2135   -2.7256    0.0000 C   0  0  0  0  0  0  0  0  0  0  0  0
    0.7500   -1.2990    0.0000 C   0  0  0  0  0  0  0  0  0  0  0  0
    1.5000    0.0000    0.0000 C   0  0  0  0  0  0  0  0  0  0  0  0
    3.0000    0.0000    0.0000 F   0  0  0  0  0  0  0  0  0  0  0  0
    0.7500    1.2990    0.0000 C   0  0  0  0  0  0  0  0  0  0  0  0
    1.5000    2.5981    0.0000 O   0  0  0  0  0  0  0  0  0  0  0  0
   -0.7500    1.2990    0.0000 C   0  0  0  0  0  0  0  0  0  0  0  0
   -1.5000    0.0000    0.0000 C   0  0  0  0  0  0  0  0  0  0  0  0
   -0.7500   -1.2990    0.0000 C   0  0  0  0  0  0  0  0  0  0  0  0
   -1.2135   -2.7256    0.0000 N   0  0  0  0  0  0  0  0  0  0  0  0
   -2.6401   -3.1891    0.0000 C   0  0  0  0  0  0  0  0  0  0  0  0
   -3.7548   -2.1855    0.0000 C   0  0  0  0  0  0  0  0  0  0  0  0
   -3.4430   -0.7182    0.0000 C   0  0  0  0  0  0  0  0  0  0  0  0
   -4.5577    0.2855    0.0000 C   0  0  0  0  0  0  0  0  0  0  0  0
   -5.9843   -0.1781    0.0000 C   0  0  0  0  0  0  0  0  0  0  0  0
   -7.0990    0.8256    0.0000 Cl  0  0  0  0  0  0  0  0  0  0  0  0
   -6.2961   -1.6453    0.0000 C   0  0  0  0  0  0  0  0  0  0  0  0
   -7.7227   -2.1088    0.0000 Cl  0  0  0  0  0  0  0  0  0  0  0  0
   -5.1814   -2.6490    0.0000 C   0  0  0  0  0  0  0  0  0  0  0  0
  1  2  2  0
  2  3  1  0
  2  4  1  0
  4  5  2  0
  5  6  1  0
  6  7  2  0
  7  8  1  0
  7  9  1  0
  9 10  1  0
  9 11  2  0
 11 12  1  0
 12 13  2  0
 13 14  1  0
 14 15  1  0
 15 16  1  0
 16 17  2  0
 17 18  1  0
 18 19  2  0
 19 20  1  0
 19 21  1  0
 21 22  1  0
 21 23  2  0
 14  4  1  0
 23 16  1  0
 13  6  1  0
M  END
>  <assay_description>  (150) 
Inhibition of human BSEP expressed in baculovirus transfected fall armyworm Sf21 cell membranes vesicles assessed as reduction in ATP-dependent [3H]-taurocholate transport into vesicles incubated for 5 mins by Topcount based rapid filtration method

>  <molecule_pref_name>  (150) 
None

>  <canonical_smiles>  (150) 
O=C(O)c1cc2c(F)c(O)ccc2n1Cc1ccc(Cl)c(Cl)c1

>  <pchembl_value>  (150) 
4.71

>  <standard_type>  (150) 
IC50

>  <standard_relation>  (150) 
=

>  <standard_value>  (150) 
19300.0

>  <standard_units>  (150) 
nM

>  <target_pref_name>  (150) 
Bile salt export pump

>  <target_organism>  (150) 
Homo sapiens

$$$$
CHEMBL4096512
     RDKit          2D

 30 31  0  0  0  0  0  0  0  0999 V2000
    6.7500   -1.2990    0.0000 C   0  0  0  0  0  0  0  0  0  0  0  0
    5.2500   -1.2990    0.0000 C   0  0  0  0  0  0  0  0  0  0  0  0
    5.2500    0.2010    0.0000 O   0  0  0  0  0  0  0  0  0  0  0  0
    3.7500   -1.2990    0.0000 C   0  0  0  0  0  0  0  0  0  0  0  0
    2.8472   -2.4970    0.0000 O   0  0  0  0  0  0  0  0  0  0  0  0
    3.0000    0.0000    0.0000 N   0  0  0  0  0  0  0  0  0  0  0  0
    1.5000    0.0000    0.0000 C   0  0  0  0  0  0  0  0  0  0  0  0
    0.7500   -1.2990    0.0000 C   0  0  0  0  0  0  0  0  0  0  0  0
   -0.7500   -1.2990    0.0000 C   0  0  0  0  0  0  0  0  0  0  0  0
   -1.5000    0.0000    0.0000 C   0  0  0  0  0  0  0  0  0  0  0  0
   -3.0000    0.0000    0.0000 S   0  0  0  0  0  0  0  0  0  0  0  0
   -3.0000   -1.5000    0.0000 O   0  0  0  0  0  0  0  0  0  0  0  0
   -3.0000    1.5000    0.0000 O   0  0  0  0  0  0  0  0  0  0  0  0
   -4.5000    0.0000    0.0000 C   0  0  0  0  0  0  0  0  0  0  0  0
   -5.2500    1.2990    0.0000 C   0  0  0  0  0  0  0  0  0  0  0  0
   -6.7500    1.2990    0.0000 C   0  0  0  0  0  0  0  0  0  0  0  0
   -7.5000    0.0000    0.0000 C   0  0  0  0  0  0  0  0  0  0  0  0
   -9.0000    0.0000    0.0000 N   0  0  0  0  0  0  0  0  0  0  0  0
   -9.7500    1.2990    0.0000 C   0  0  0  0  0  0  0  0  0  0  0  0
  -11.2500    1.2990    0.0000 C   0  0  0  0  0  0  0  0  0  0  0  0
  -12.0000    2.5981    0.0000 O   0  0  0  0  0  0  0  0  0  0  0  0
   -6.7500   -1.2990    0.0000 C   0  0  0  0  0  0  0  0  0  0  0  0
   -5.2500   -1.2990    0.0000 C   0  0  0  0  0  0  0  0  0  0  0  0
   -0.7500    1.2990    0.0000 C   0  0  0  0  0  0  0  0  0  0  0  0
    0.7500    1.2990    0.0000 C   0  0  0  0  0  0  0  0  0  0  0  0
    1.5000    2.5981    0.0000 Cl  0  0  0  0  0  0  0  0  0  0  0  0
    5.2500   -2.7990    0.0000 C   0  0  0  0  0  0  0  0  0  0  0  0
    5.2500   -4.2990    0.0000 F   0  0  0  0  0  0  0  0  0  0  0  0
    6.7500   -2.7990    0.0000 F   0  0  0  0  0  0  0  0  0  0  0  0
    3.7612   -2.9819    0.0000 F   0  0  0  0  0  0  0  0  0  0  0  0
  2  1  1  6
  2  3  1  0
  2  4  1  0
  4  5  2  0
  4  6  1  0
  6  7  1  0
  7  8  2  0
  8  9  1  0
  9 10  2  0
 10 11  1  0
 11 12  2  0
 11 13  2  0
 11 14  1  0
 14 15  2  0
 15 16  1  0
 16 17  2  0
 17 18  1  0
 18 19  1  0
 19 20  1  0
 20 21  1  0
 17 22  1  0
 22 23  2  0
 10 24  1  0
 24 25  2  0
 25 26  1  0
  2 27  1  0
 27 28  1  0
 27 29  1  0
 27 30  1  0
 25  7  1  0
 23 14  1  0
M  END
>  <assay_description>  (151) 
Inhibition of human BSEP expressed in baculovirus transfected fall armyworm Sf21 cell membranes vesicles assessed as reduction in ATP-dependent [3H]-taurocholate transport into vesicles incubated for 5 mins by Topcount based rapid filtration method

>  <molecule_pref_name>  (151) 
None

>  <canonical_smiles>  (151) 
C[C@@](O)(C(=O)Nc1ccc(S(=O)(=O)c2ccc(NCCO)cc2)cc1Cl)C(F)(F)F

>  <pchembl_value>  (151) 
4.56

>  <standard_type>  (151) 
IC50

>  <standard_relation>  (151) 
=

>  <standard_value>  (151) 
27350.0

>  <standard_units>  (151) 
nM

>  <target_pref_name>  (151) 
Bile salt export pump

>  <target_organism>  (151) 
Homo sapiens

$$$$
CHEMBL1396346
     RDKit          2D

 33 35  0  0  0  0  0  0  0  0999 V2000
   -4.9330    3.3481    0.0000 C   0  0  0  0  0  0  0  0  0  0  0  0
   -4.1830    2.0490    0.0000 O   0  0  0  0  0  0  0  0  0  0  0  0
   -2.6830    2.0490    0.0000 C   0  0  0  0  0  0  0  0  0  0  0  0
   -1.9330    3.3481    0.0000 C   0  0  0  0  0  0  0  0  0  0  0  0
   -2.6830    4.6471    0.0000 O   0  0  0  0  0  0  0  0  0  0  0  0
   -1.9330    5.9462    0.0000 C   0  0  0  0  0  0  0  0  0  0  0  0
   -0.4330    5.9462    0.0000 O   0  0  0  0  0  0  0  0  0  0  0  0
   -2.6830    7.2452    0.0000 C   0  0  0  0  0  0  0  0  0  0  0  0
   -1.9330    8.5442    0.0000 C   0  0  0  0  0  0  0  0  0  0  0  0
   -2.6830    9.8433    0.0000 C   0  0  0  0  0  0  0  0  0  0  0  0
   -1.9330   11.1423    0.0000 C   0  0  0  0  0  0  0  0  0  0  0  0
   -2.6830   12.4413    0.0000 C   0  0  0  0  0  0  0  0  0  0  0  0
   -1.9330   13.7404    0.0000 C   0  0  0  0  0  0  0  0  0  0  0  0
   -2.6830   15.0394    0.0000 C   0  0  0  0  0  0  0  0  0  0  0  0
   -1.9330   16.3385    0.0000 C   0  0  0  0  0  0  0  0  0  0  0  0
   -2.6830   17.6375    0.0000 C   0  0  0  0  0  0  0  0  0  0  0  0
   -4.1830   17.6375    0.0000 O   0  0  0  0  0  0  0  0  0  0  0  0
   -1.9330   18.9365    0.0000 O   0  0  0  0  0  0  0  0  0  0  0  0
   -0.4330    3.3481    0.0000 C   0  0  0  0  0  0  0  0  0  0  0  0
    0.3170    2.0490    0.0000 C   0  0  0  0  0  0  0  0  0  0  0  0
   -0.4330    0.7500    0.0000 C   0  0  0  0  0  0  0  0  0  0  0  0
    0.8660    0.0000    0.0000 C   0  0  0  0  0  0  0  0  0  0  0  0
   -0.4330   -0.7500    0.0000 O   0  0  0  0  0  0  0  0  0  0  0  0
   -1.9330    0.7500    0.0000 C   0  0  0  0  0  0  0  0  0  0  0  0
   -2.6830   -0.5490    0.0000 C   0  0  0  0  0  0  0  0  0  0  0  0
   -1.5339   -1.5132    0.0000 C   0  0  0  0  0  0  0  0  0  0  0  0
   -3.8321   -1.5132    0.0000 O   0  0  0  0  0  0  0  0  0  0  0  0
   -4.0926   -0.0360    0.0000 C   0  0  0  0  0  0  0  0  0  0  0  0
   -5.0567    1.1131    0.0000 C   0  0  0  0  0  0  0  0  0  0  0  0
   -6.5339    0.8526    0.0000 C   0  0  0  0  0  0  0  0  0  0  0  0
   -7.4981    2.0017    0.0000 C   0  0  0  0  0  0  0  0  0  0  0  0
   -8.9753    1.7412    0.0000 C   0  0  0  0  0  0  0  0  0  0  0  0
   -6.9851    3.4112    0.0000 C   0  0  0  0  0  0  0  0  0  0  0  0
  1  2  1  0
  2  3  1  0
  3  4  1  0
  4  5  1  0
  5  6  1  0
  6  7  2  0
  6  8  1  0
  8  9  2  0
  9 10  1  0
 10 11  2  0
 11 12  1  0
 12 13  2  0
 13 14  1  0
 14 15  2  0
 15 16  1  0
 16 17  2  0
 16 18  1  0
  4 19  1  0
 19 20  1  0
 20 21  1  0
 21 22  1  0
 22 23  1  0
 21 24  1  0
 24 25  1  0
 25 26  1  0
 25 27  1  0
 27 28  1  0
 28 29  1  0
 29 30  1  0
 30 31  2  3
 31 32  1  0
 31 33  1  0
 24  3  1  0
 28 25  1  0
 23 21  1  0
M  END
>  <assay_description>  (152) 
Inhibition of human BSEP expressed in baculovirus transfected fall armyworm Sf21 cell membranes vesicles assessed as reduction in ATP-dependent [3H]-taurocholate transport into vesicles incubated for 5 mins by Topcount based rapid filtration method

>  <molecule_pref_name>  (152) 
None

>  <canonical_smiles>  (152) 
COC1C(OC(=O)/C=C/C=C/C=C/C=C/C(=O)O)CCC2(CO2)C1C1(C)OC1CC=C(C)C

>  <pchembl_value>  (152) 
4.59

>  <standard_type>  (152) 
IC50

>  <standard_relation>  (152) 
=

>  <standard_value>  (152) 
25590.0

>  <standard_units>  (152) 
nM

>  <target_pref_name>  (152) 
Bile salt export pump

>  <target_organism>  (152) 
Homo sapiens

$$$$
CHEMBL339457
     RDKit          2D

 27 29  0  0  0  0  0  0  0  0999 V2000
    6.0000   -2.5981    0.0000 C   0  0  0  0  0  0  0  0  0  0  0  0
    5.2500   -1.2990    0.0000 C   0  0  0  0  0  0  0  0  0  0  0  0
    3.7500   -1.2990    0.0000 N   0  0  0  0  0  0  0  0  0  0  0  0
    3.0000   -2.5981    0.0000 C   0  0  0  0  0  0  0  0  0  0  0  0
    3.7500   -3.8971    0.0000 C   0  0  0  0  0  0  0  0  0  0  0  0
    3.0000    0.0000    0.0000 C   0  0  0  0  0  0  0  0  0  0  0  0
    3.7500    1.2990    0.0000 O   0  0  0  0  0  0  0  0  0  0  0  0
    1.5000    0.0000    0.0000 C   0  0  0  0  0  0  0  0  0  0  0  0
    0.7500   -1.2990    0.0000 C   0  0  0  0  0  0  0  0  0  0  0  0
   -0.7500   -1.2990    0.0000 C   0  0  0  0  0  0  0  0  0  0  0  0
   -1.5000    0.0000    0.0000 C   0  0  0  0  0  0  0  0  0  0  0  0
   -3.0000    0.0000    0.0000 C   0  0  0  0  0  0  0  0  0  0  0  0
   -3.7500   -1.2990    0.0000 C   0  0  0  0  0  0  0  0  0  0  0  0
   -5.2500   -1.2990    0.0000 C   0  0  0  0  0  0  0  0  0  0  0  0
   -6.0000   -2.5981    0.0000 C   0  0  0  0  0  0  0  0  0  0  0  0
   -5.2500   -3.8971    0.0000 N   0  0  0  0  0  0  0  0  0  0  0  0
   -3.7500   -3.8971    0.0000 C   0  0  0  0  0  0  0  0  0  0  0  0
   -3.0000   -2.5981    0.0000 C   0  0  0  0  0  0  0  0  0  0  0  0
   -3.7500    1.2990    0.0000 C   0  0  0  0  0  0  0  0  0  0  0  0
   -3.0000    2.5981    0.0000 C   0  0  0  0  0  0  0  0  0  0  0  0
   -3.7500    3.8971    0.0000 C   0  0  0  0  0  0  0  0  0  0  0  0
   -5.2500    3.8971    0.0000 C   0  0  0  0  0  0  0  0  0  0  0  0
   -6.0000    2.5981    0.0000 C   0  0  0  0  0  0  0  0  0  0  0  0
   -7.5000    2.5981    0.0000 F   0  0  0  0  0  0  0  0  0  0  0  0
   -5.2500    1.2990    0.0000 C   0  0  0  0  0  0  0  0  0  0  0  0
   -0.7500    1.2990    0.0000 C   0  0  0  0  0  0  0  0  0  0  0  0
    0.7500    1.2990    0.0000 C   0  0  0  0  0  0  0  0  0  0  0  0
  1  2  1  0
  2  3  1  0
  3  4  1  0
  4  5  1  0
  3  6  1  0
  6  7  2  0
  6  8  1  0
  8  9  2  0
  9 10  1  0
 10 11  2  0
 11 12  1  0
 12 13  2  3
 13 14  1  0
 14 15  1  0
 15 16  1  0
 16 17  1  0
 17 18  1  0
 12 19  1  0
 19 20  2  0
 20 21  1  0
 21 22  2  0
 22 23  1  0
 23 24  1  0
 23 25  2  0
 11 26  1  0
 26 27  2  0
 27  8  1  0
 18 13  1  0
 25 19  1  0
M  END
>  <assay_description>  (153) 
Inhibition of human BSEP expressed in baculovirus transfected fall armyworm Sf21 cell membranes vesicles assessed as reduction in ATP-dependent [3H]-taurocholate transport into vesicles incubated for 5 mins by Topcount based rapid filtration method

>  <molecule_pref_name>  (153) 
None

>  <canonical_smiles>  (153) 
CCN(CC)C(=O)c1ccc(C(=C2CCNCC2)c2cccc(F)c2)cc1

>  <pchembl_value>  (153) 
4.07

>  <standard_type>  (153) 
IC50

>  <standard_relation>  (153) 
=

>  <standard_value>  (153) 
86070.0

>  <standard_units>  (153) 
nM

>  <target_pref_name>  (153) 
Bile salt export pump

>  <target_organism>  (153) 
Homo sapiens

$$$$
CHEMBL376981
     RDKit          2D

 22 24  0  0  0  0  0  0  0  0999 V2000
    1.2990   -5.8573    0.0000 O   0  0  0  0  0  0  0  0  0  0  0  0
   -0.0000   -5.1073    0.0000 C   0  0  0  0  0  0  0  0  0  0  0  0
   -1.2990   -5.8573    0.0000 O   0  0  0  0  0  0  0  0  0  0  0  0
   -0.0000   -3.6073    0.0000 C   0  0  0  0  0  0  0  0  0  0  0  0
    1.2135   -2.7256    0.0000 C   0  0  0  0  0  0  0  0  0  0  0  0
    0.7500   -1.2990    0.0000 C   0  0  0  0  0  0  0  0  0  0  0  0
    1.5000    0.0000    0.0000 C   0  0  0  0  0  0  0  0  0  0  0  0
    0.7500    1.2990    0.0000 C   0  0  0  0  0  0  0  0  0  0  0  0
    1.5000    2.5981    0.0000 O   0  0  0  0  0  0  0  0  0  0  0  0
   -0.7500    1.2990    0.0000 C   0  0  0  0  0  0  0  0  0  0  0  0
   -1.5000    0.0000    0.0000 C   0  0  0  0  0  0  0  0  0  0  0  0
   -0.7500   -1.2990    0.0000 C   0  0  0  0  0  0  0  0  0  0  0  0
   -1.2135   -2.7256    0.0000 N   0  0  0  0  0  0  0  0  0  0  0  0
   -2.6401   -3.1891    0.0000 C   0  0  0  0  0  0  0  0  0  0  0  0
   -3.7548   -2.1855    0.0000 C   0  0  0  0  0  0  0  0  0  0  0  0
   -3.4430   -0.7182    0.0000 C   0  0  0  0  0  0  0  0  0  0  0  0
   -4.5577    0.2855    0.0000 C   0  0  0  0  0  0  0  0  0  0  0  0
   -5.9843   -0.1781    0.0000 C   0  0  0  0  0  0  0  0  0  0  0  0
   -7.0990    0.8256    0.0000 Cl  0  0  0  0  0  0  0  0  0  0  0  0
   -6.2961   -1.6453    0.0000 C   0  0  0  0  0  0  0  0  0  0  0  0
   -7.7227   -2.1088    0.0000 Cl  0  0  0  0  0  0  0  0  0  0  0  0
   -5.1814   -2.6490    0.0000 C   0  0  0  0  0  0  0  0  0  0  0  0
  1  2  2  0
  2  3  1  0
  2  4  1  0
  4  5  2  0
  5  6  1  0
  6  7  2  0
  7  8  1  0
  8  9  1  0
  8 10  2  0
 10 11  1  0
 11 12  2  0
 12 13  1  0
 13 14  1  0
 14 15  1  0
 15 16  2  0
 16 17  1  0
 17 18  2  0
 18 19  1  0
 18 20  1  0
 20 21  1  0
 20 22  2  0
 13  4  1  0
 22 15  1  0
 12  6  1  0
M  END
>  <assay_description>  (154) 
Inhibition of human BSEP expressed in baculovirus transfected fall armyworm Sf21 cell membranes vesicles assessed as reduction in ATP-dependent [3H]-taurocholate transport into vesicles incubated for 5 mins by Topcount based rapid filtration method

>  <molecule_pref_name>  (154) 
None

>  <canonical_smiles>  (154) 
O=C(O)c1cc2cc(O)ccc2n1Cc1ccc(Cl)c(Cl)c1

>  <pchembl_value>  (154) 
4.30

>  <standard_type>  (154) 
IC50

>  <standard_relation>  (154) 
=

>  <standard_value>  (154) 
49840.0

>  <standard_units>  (154) 
nM

>  <target_pref_name>  (154) 
Bile salt export pump

>  <target_organism>  (154) 
Homo sapiens

$$$$
CHEMBL4084549
     RDKit          2D

 24 26  0  0  0  0  0  0  0  0999 V2000
   -3.7548   -2.1855    0.0000 C   0  0  0  0  0  0  0  0  0  0  0  0
   -2.6401   -3.1891    0.0000 O   0  0  0  0  0  0  0  0  0  0  0  0
   -1.2135   -2.7256    0.0000 C   0  0  0  0  0  0  0  0  0  0  0  0
   -0.0000   -3.6073    0.0000 C   0  0  0  0  0  0  0  0  0  0  0  0
   -0.0000   -5.1073    0.0000 C   0  0  0  0  0  0  0  0  0  0  0  0
    1.2990   -5.8573    0.0000 O   0  0  0  0  0  0  0  0  0  0  0  0
   -1.2990   -5.8573    0.0000 O   0  0  0  0  0  0  0  0  0  0  0  0
    1.2135   -2.7256    0.0000 N   0  0  0  0  0  0  0  0  0  0  0  0
    2.6401   -3.1891    0.0000 C   0  0  0  0  0  0  0  0  0  0  0  0
    3.7548   -2.1855    0.0000 C   0  0  0  0  0  0  0  0  0  0  0  0
    3.4430   -0.7182    0.0000 C   0  0  0  0  0  0  0  0  0  0  0  0
    4.5577    0.2855    0.0000 C   0  0  0  0  0  0  0  0  0  0  0  0
    5.9843   -0.1781    0.0000 C   0  0  0  0  0  0  0  0  0  0  0  0
    7.0990    0.8256    0.0000 Cl  0  0  0  0  0  0  0  0  0  0  0  0
    6.2961   -1.6453    0.0000 C   0  0  0  0  0  0  0  0  0  0  0  0
    7.7227   -2.1088    0.0000 Cl  0  0  0  0  0  0  0  0  0  0  0  0
    5.1814   -2.6490    0.0000 C   0  0  0  0  0  0  0  0  0  0  0  0
    0.7500   -1.2990    0.0000 C   0  0  0  0  0  0  0  0  0  0  0  0
    1.5000    0.0000    0.0000 C   0  0  0  0  0  0  0  0  0  0  0  0
    0.7500    1.2990    0.0000 C   0  0  0  0  0  0  0  0  0  0  0  0
   -0.7500    1.2990    0.0000 C   0  0  0  0  0  0  0  0  0  0  0  0
   -1.5000    2.5981    0.0000 O   0  0  0  0  0  0  0  0  0  0  0  0
   -1.5000    0.0000    0.0000 C   0  0  0  0  0  0  0  0  0  0  0  0
   -0.7500   -1.2990    0.0000 C   0  0  0  0  0  0  0  0  0  0  0  0
  1  2  1  0
  2  3  1  0
  3  4  2  0
  4  5  1  0
  5  6  2  0
  5  7  1  0
  4  8  1  0
  8  9  1  0
  9 10  1  0
 10 11  2  0
 11 12  1  0
 12 13  2  0
 13 14  1  0
 13 15  1  0
 15 16  1  0
 15 17  2  0
  8 18  1  0
 18 19  2  0
 19 20  1  0
 20 21  2  0
 21 22  1  0
 21 23  1  0
 23 24  2  0
 24  3  1  0
 17 10  1  0
 24 18  1  0
M  END
>  <assay_description>  (155) 
Inhibition of human BSEP expressed in baculovirus transfected fall armyworm Sf21 cell membranes vesicles assessed as reduction in ATP-dependent [3H]-taurocholate transport into vesicles incubated for 5 mins by Topcount based rapid filtration method

>  <molecule_pref_name>  (155) 
None

>  <canonical_smiles>  (155) 
COc1c(C(=O)O)n(Cc2ccc(Cl)c(Cl)c2)c2ccc(O)cc12

>  <pchembl_value>  (155) 
4.40

>  <standard_type>  (155) 
IC50

>  <standard_relation>  (155) 
=

>  <standard_value>  (155) 
39570.0

>  <standard_units>  (155) 
nM

>  <target_pref_name>  (155) 
Bile salt export pump

>  <target_organism>  (155) 
Homo sapiens

$$$$
CHEMBL4079187
     RDKit          2D

 20 22  0  0  0  0  0  0  0  0999 V2000
   -2.9630    4.9155    0.0000 O   0  0  0  0  0  0  0  0  0  0  0  0
   -1.4958    4.6036    0.0000 C   0  0  0  0  0  0  0  0  0  0  0  0
   -0.4921    5.7184    0.0000 O   0  0  0  0  0  0  0  0  0  0  0  0
   -1.0323    3.1771    0.0000 C   0  0  0  0  0  0  0  0  0  0  0  0
    0.3943    2.7135    0.0000 C   0  0  0  0  0  0  0  0  0  0  0  0
    0.3943    1.2135    0.0000 C   0  0  0  0  0  0  0  0  0  0  0  0
    1.2760    0.0000    0.0000 S   0  0  0  0  0  0  0  0  0  0  0  0
    0.3943   -1.2135    0.0000 C   0  0  0  0  0  0  0  0  0  0  0  0
   -1.0323   -0.7500    0.0000 N   0  0  0  0  0  0  0  0  0  0  0  0
   -1.0323    0.7500    0.0000 C   0  0  0  0  0  0  0  0  0  0  0  0
   -1.9140    1.9635    0.0000 N   0  0  0  0  0  0  0  0  0  0  0  0
   -3.4140    1.9635    0.0000 C   0  0  0  0  0  0  0  0  0  0  0  0
   -4.1640    0.6645    0.0000 C   0  0  0  0  0  0  0  0  0  0  0  0
   -5.6640    0.6645    0.0000 C   0  0  0  0  0  0  0  0  0  0  0  0
   -6.4140   -0.6346    0.0000 C   0  0  0  0  0  0  0  0  0  0  0  0
   -5.6640   -1.9336    0.0000 C   0  0  0  0  0  0  0  0  0  0  0  0
   -6.4140   -3.2326    0.0000 Cl  0  0  0  0  0  0  0  0  0  0  0  0
   -4.1640   -1.9336    0.0000 C   0  0  0  0  0  0  0  0  0  0  0  0
   -3.4140   -3.2326    0.0000 Cl  0  0  0  0  0  0  0  0  0  0  0  0
   -3.4140   -0.6346    0.0000 C   0  0  0  0  0  0  0  0  0  0  0  0
  1  2  2  0
  2  3  1  0
  2  4  1  0
  4  5  2  0
  5  6  1  0
  6  7  1  0
  7  8  1  0
  8  9  2  0
  9 10  1  0
 10 11  1  0
 11 12  1  0
 12 13  1  0
 13 14  2  0
 14 15  1  0
 15 16  2  0
 16 17  1  0
 16 18  1  0
 18 19  1  0
 18 20  2  0
 11  4  1  0
 20 13  1  0
 10  6  2  0
M  END
>  <assay_description>  (156) 
Inhibition of human BSEP expressed in baculovirus transfected fall armyworm Sf21 cell membranes vesicles assessed as reduction in ATP-dependent [3H]-taurocholate transport into vesicles incubated for 5 mins by Topcount based rapid filtration method

>  <molecule_pref_name>  (156) 
None

>  <canonical_smiles>  (156) 
O=C(O)c1cc2scnc2n1Cc1ccc(Cl)c(Cl)c1

>  <pchembl_value>  (156) 
4.65

>  <standard_type>  (156) 
IC50

>  <standard_relation>  (156) 
=

>  <standard_value>  (156) 
22390.0

>  <standard_units>  (156) 
nM

>  <target_pref_name>  (156) 
Bile salt export pump

>  <target_organism>  (156) 
Homo sapiens

$$$$
CHEMBL4065628
     RDKit          2D

 29 32  0  0  0  0  0  0  0  0999 V2000
   -4.1770  -16.6395    0.0000 C   0  0  0  0  0  0  0  0  0  0  0  0
   -3.2954  -15.4260    0.0000 C   0  0  0  0  0  0  0  0  0  0  0  0
   -1.8036  -15.5827    0.0000 O   0  0  0  0  0  0  0  0  0  0  0  0
   -3.9055  -14.0556    0.0000 N   0  0  0  0  0  0  0  0  0  0  0  0
   -3.0238  -12.8421    0.0000 C   0  0  0  0  0  0  0  0  0  0  0  0
   -3.6339  -11.4718    0.0000 C   0  0  0  0  0  0  0  0  0  0  0  0
   -2.8839  -10.1728    0.0000 C   0  0  0  0  0  0  0  0  0  0  0  0
   -3.8876   -9.0580    0.0000 N   0  0  0  0  0  0  0  0  0  0  0  0
   -3.5757   -7.5908    0.0000 C   0  0  0  0  0  0  0  0  0  0  0  0
   -2.1491   -7.1273    0.0000 C   0  0  0  0  0  0  0  0  0  0  0  0
   -1.8373   -5.6601    0.0000 C   0  0  0  0  0  0  0  0  0  0  0  0
   -2.9520   -4.6564    0.0000 C   0  0  0  0  0  0  0  0  0  0  0  0
   -2.6401   -3.1891    0.0000 C   0  0  0  0  0  0  0  0  0  0  0  0
   -3.7548   -2.1855    0.0000 O   0  0  0  0  0  0  0  0  0  0  0  0
   -1.2135   -2.7256    0.0000 C   0  0  0  0  0  0  0  0  0  0  0  0
   -0.0000   -3.6073    0.0000 C   0  0  0  0  0  0  0  0  0  0  0  0
    1.2135   -2.7256    0.0000 N   0  0  0  0  0  0  0  0  0  0  0  0
    0.7500   -1.2990    0.0000 C   0  0  0  0  0  0  0  0  0  0  0  0
    1.5000    0.0000    0.0000 C   0  0  0  0  0  0  0  0  0  0  0  0
    0.7500    1.2990    0.0000 C   0  0  0  0  0  0  0  0  0  0  0  0
   -0.7500    1.2990    0.0000 C   0  0  0  0  0  0  0  0  0  0  0  0
   -1.5000    2.5981    0.0000 Cl  0  0  0  0  0  0  0  0  0  0  0  0
   -1.5000    0.0000    0.0000 C   0  0  0  0  0  0  0  0  0  0  0  0
   -0.7500   -1.2990    0.0000 N   0  0  0  0  0  0  0  0  0  0  0  0
   -4.3786   -5.1199    0.0000 C   0  0  0  0  0  0  0  0  0  0  0  0
   -4.6904   -6.5871    0.0000 C   0  0  0  0  0  0  0  0  0  0  0  0
   -5.2579   -9.6681    0.0000 C   0  0  0  0  0  0  0  0  0  0  0  0
   -6.5569   -8.9181    0.0000 O   0  0  0  0  0  0  0  0  0  0  0  0
   -5.1011  -11.1599    0.0000 O   0  0  0  0  0  0  0  0  0  0  0  0
  1  2  1  0
  2  3  2  0
  2  4  1  0
  4  5  1  0
  6  5  1  6
  6  7  1  0
  7  8  1  0
  8  9  1  0
  9 10  2  0
 10 11  1  0
 11 12  2  0
 12 13  1  0
 13 14  2  0
 13 15  1  0
 15 16  2  0
 16 17  1  0
 17 18  2  0
 18 19  1  0
 19 20  2  0
 20 21  1  0
 21 22  1  0
 21 23  2  0
 23 24  1  0
 12 25  1  0
 25 26  2  0
  8 27  1  0
 27 28  2  0
 27 29  1  0
 29  6  1  0
 26  9  1  0
 24 15  1  0
 24 18  1  0
M  END
>  <assay_description>  (157) 
Inhibition of human BSEP expressed in baculovirus transfected fall armyworm Sf21 cell membranes vesicles assessed as reduction in ATP-dependent [3H]-taurocholate transport into vesicles incubated for 5 mins by Topcount based rapid filtration method

>  <molecule_pref_name>  (157) 
None

>  <canonical_smiles>  (157) 
CC(=O)NC[C@H]1CN(c2ccc(C(=O)c3cnc4ccc(Cl)cn34)cc2)C(=O)O1

>  <pchembl_value>  (157) 
4.56

>  <standard_type>  (157) 
IC50

>  <standard_relation>  (157) 
=

>  <standard_value>  (157) 
27550.0

>  <standard_units>  (157) 
nM

>  <target_pref_name>  (157) 
Bile salt export pump

>  <target_organism>  (157) 
Homo sapiens

$$$$
CHEMBL4063979
     RDKit          2D

 21 23  0  0  0  0  0  0  0  0999 V2000
    2.7760    0.0000    0.0000 C   0  0  0  0  0  0  0  0  0  0  0  0
    1.2760    0.0000    0.0000 C   0  0  0  0  0  0  0  0  0  0  0  0
    0.3943    1.2135    0.0000 C   0  0  0  0  0  0  0  0  0  0  0  0
   -1.0323    0.7500    0.0000 C   0  0  0  0  0  0  0  0  0  0  0  0
   -1.0323   -0.7500    0.0000 C   0  0  0  0  0  0  0  0  0  0  0  0
   -2.4589   -1.2135    0.0000 C   0  0  0  0  0  0  0  0  0  0  0  0
   -3.3405    0.0000    0.0000 C   0  0  0  0  0  0  0  0  0  0  0  0
   -4.8405    0.0000    0.0000 C   0  0  0  0  0  0  0  0  0  0  0  0
   -5.5905   -1.2990    0.0000 O   0  0  0  0  0  0  0  0  0  0  0  0
   -5.5905    1.2990    0.0000 O   0  0  0  0  0  0  0  0  0  0  0  0
   -2.4589    1.2135    0.0000 N   0  0  0  0  0  0  0  0  0  0  0  0
   -2.9224    2.6401    0.0000 C   0  0  0  0  0  0  0  0  0  0  0  0
   -1.9187    3.7548    0.0000 C   0  0  0  0  0  0  0  0  0  0  0  0
   -0.4515    3.4430    0.0000 C   0  0  0  0  0  0  0  0  0  0  0  0
    0.5522    4.5577    0.0000 C   0  0  0  0  0  0  0  0  0  0  0  0
    0.0887    5.9843    0.0000 C   0  0  0  0  0  0  0  0  0  0  0  0
    1.0924    7.0990    0.0000 Cl  0  0  0  0  0  0  0  0  0  0  0  0
   -1.3785    6.2961    0.0000 C   0  0  0  0  0  0  0  0  0  0  0  0
   -1.8421    7.7227    0.0000 Cl  0  0  0  0  0  0  0  0  0  0  0  0
   -2.3822    5.1814    0.0000 C   0  0  0  0  0  0  0  0  0  0  0  0
    0.3943   -1.2135    0.0000 O   0  0  0  0  0  0  0  0  0  0  0  0
  1  2  1  0
  2  3  2  0
  3  4  1  0
  4  5  2  0
  5  6  1  0
  6  7  2  0
  7  8  1  0
  8  9  2  0
  8 10  1  0
  7 11  1  0
 11 12  1  0
 12 13  1  0
 13 14  2  0
 14 15  1  0
 15 16  2  0
 16 17  1  0
 16 18  1  0
 18 19  1  0
 18 20  2  0
  5 21  1  0
 21  2  1  0
 11  4  1  0
 20 13  1  0
M  END
>  <assay_description>  (158) 
Inhibition of human BSEP expressed in baculovirus transfected fall armyworm Sf21 cell membranes vesicles assessed as reduction in ATP-dependent [3H]-taurocholate transport into vesicles incubated for 5 mins by Topcount based rapid filtration method

>  <molecule_pref_name>  (158) 
None

>  <canonical_smiles>  (158) 
Cc1cc2c(cc(C(=O)O)n2Cc2ccc(Cl)c(Cl)c2)o1

>  <pchembl_value>  (158) 
4.80

>  <standard_type>  (158) 
IC50

>  <standard_relation>  (158) 
=

>  <standard_value>  (158) 
15890.0

>  <standard_units>  (158) 
nM

>  <target_pref_name>  (158) 
Bile salt export pump

>  <target_organism>  (158) 
Homo sapiens

$$$$
CHEMBL4097595
     RDKit          2D

 25 27  0  0  0  0  0  0  0  0999 V2000
    5.2500   -1.2990    0.0000 C   0  0  0  0  0  0  0  0  0  0  0  0
    3.7500   -1.2990    0.0000 C   0  0  0  0  0  0  0  0  0  0  0  0
    3.0000   -2.5981    0.0000 O   0  0  0  0  0  0  0  0  0  0  0  0
    3.0000    0.0000    0.0000 O   0  0  0  0  0  0  0  0  0  0  0  0
    1.5000    0.0000    0.0000 C   0  0  0  0  0  0  0  0  0  0  0  0
    0.7500   -1.2990    0.0000 C   0  0  0  0  0  0  0  0  0  0  0  0
   -0.7500   -1.2990    0.0000 C   0  0  0  0  0  0  0  0  0  0  0  0
   -1.5000    0.0000    0.0000 C   0  0  0  0  0  0  0  0  0  0  0  0
   -0.7500    1.2990    0.0000 C   0  0  0  0  0  0  0  0  0  0  0  0
    0.7500    1.2990    0.0000 C   0  0  0  0  0  0  0  0  0  0  0  0
   -1.7537    2.4138    0.0000 C   0  0  0  0  0  0  0  0  0  0  0  0
   -3.1240    1.8037    0.0000 C   0  0  0  0  0  0  0  0  0  0  0  0
   -4.4231    2.5537    0.0000 C   0  0  0  0  0  0  0  0  0  0  0  0
   -5.7221    1.8037    0.0000 O   0  0  0  0  0  0  0  0  0  0  0  0
   -4.4231    4.0537    0.0000 O   0  0  0  0  0  0  0  0  0  0  0  0
   -2.9672    0.3119    0.0000 N   0  0  0  0  0  0  0  0  0  0  0  0
   -4.0819   -0.6918    0.0000 C   0  0  0  0  0  0  0  0  0  0  0  0
   -3.7701   -2.1590    0.0000 C   0  0  0  0  0  0  0  0  0  0  0  0
   -2.3435   -2.6226    0.0000 C   0  0  0  0  0  0  0  0  0  0  0  0
   -2.0316   -4.0898    0.0000 C   0  0  0  0  0  0  0  0  0  0  0  0
   -3.1463   -5.0935    0.0000 C   0  0  0  0  0  0  0  0  0  0  0  0
   -2.8345   -6.5607    0.0000 Cl  0  0  0  0  0  0  0  0  0  0  0  0
   -4.5729   -4.6300    0.0000 C   0  0  0  0  0  0  0  0  0  0  0  0
   -5.6876   -5.6337    0.0000 Cl  0  0  0  0  0  0  0  0  0  0  0  0
   -4.8848   -3.1627    0.0000 C   0  0  0  0  0  0  0  0  0  0  0  0
  1  2  1  0
  2  3  2  0
  2  4  1  0
  4  5  1  0
  5  6  2  0
  6  7  1  0
  7  8  2  0
  8  9  1  0
  9 10  2  0
  9 11  1  0
 11 12  2  0
 12 13  1  0
 13 14  2  0
 13 15  1  0
 12 16  1  0
 16 17  1  0
 17 18  1  0
 18 19  2  0
 19 20  1  0
 20 21  2  0
 21 22  1  0
 21 23  1  0
 23 24  1  0
 23 25  2  0
 10  5  1  0
 25 18  1  0
 16  8  1  0
M  END
>  <assay_description>  (159) 
Inhibition of human BSEP expressed in baculovirus transfected fall armyworm Sf21 cell membranes vesicles assessed as reduction in ATP-dependent [3H]-taurocholate transport into vesicles incubated for 5 mins by Topcount based rapid filtration method

>  <molecule_pref_name>  (159) 
None

>  <canonical_smiles>  (159) 
CC(=O)Oc1ccc2c(c1)cc(C(=O)O)n2Cc1ccc(Cl)c(Cl)c1

>  <pchembl_value>  (159) 
4.26

>  <standard_type>  (159) 
IC50

>  <standard_relation>  (159) 
=

>  <standard_value>  (159) 
55210.0

>  <standard_units>  (159) 
nM

>  <target_pref_name>  (159) 
Bile salt export pump

>  <target_organism>  (159) 
Homo sapiens

$$$$
CHEMBL4078616
     RDKit          2D

 16 17  0  0  0  0  0  0  0  0999 V2000
    3.7500   -1.2990    0.0000 C   0  0  0  0  0  0  0  0  0  0  0  0
    3.0000    0.0000    0.0000 O   0  0  0  0  0  0  0  0  0  0  0  0
    1.5000    0.0000    0.0000 C   0  0  0  0  0  0  0  0  0  0  0  0
    0.7500   -1.2990    0.0000 C   0  0  0  0  0  0  0  0  0  0  0  0
   -0.7500   -1.2990    0.0000 C   0  0  0  0  0  0  0  0  0  0  0  0
   -1.5000    0.0000    0.0000 C   0  0  0  0  0  0  0  0  0  0  0  0
   -3.0000    0.0000    0.0000 C   0  0  0  0  0  0  0  0  0  0  0  0
   -3.7500    1.2990    0.0000 C   0  0  0  0  0  0  0  0  0  0  0  0
   -5.2500    1.2990    0.0000 C   0  0  0  0  0  0  0  0  0  0  0  0
   -6.0000    2.5981    0.0000 C   0  0  0  0  0  0  0  0  0  0  0  0
   -6.0000    0.0000    0.0000 C   0  0  0  0  0  0  0  0  0  0  0  0
   -7.5000    0.0000    0.0000 O   0  0  0  0  0  0  0  0  0  0  0  0
   -3.0000    2.5981    0.0000 C   0  0  0  0  0  0  0  0  0  0  0  0
   -1.5000    2.5981    0.0000 C   0  0  0  0  0  0  0  0  0  0  0  0
   -0.7500    1.2990    0.0000 C   0  0  0  0  0  0  0  0  0  0  0  0
    0.7500    1.2990    0.0000 C   0  0  0  0  0  0  0  0  0  0  0  0
  1  2  1  0
  2  3  1  0
  3  4  2  0
  4  5  1  0
  5  6  2  0
  6  7  1  0
  7  8  2  0
  8  9  1  0
  9 10  1  0
  9 11  1  0
 11 12  1  0
  8 13  1  0
 13 14  2  0
 14 15  1  0
 15 16  2  0
 16  3  1  0
 15  6  1  0
M  END
>  <assay_description>  (160) 
Inhibition of human BSEP expressed in baculovirus transfected fall armyworm Sf21 cell membranes vesicles assessed as reduction in ATP-dependent [3H]-taurocholate transport into vesicles incubated for 5 mins by Topcount based rapid filtration method

>  <molecule_pref_name>  (160) 
None

>  <canonical_smiles>  (160) 
COc1ccc2cc(C(C)CO)ccc2c1

>  <pchembl_value>  (160) 
4.01

>  <standard_type>  (160) 
IC50

>  <standard_relation>  (160) 
=

>  <standard_value>  (160) 
97580.0

>  <standard_units>  (160) 
nM

>  <target_pref_name>  (160) 
Bile salt export pump

>  <target_organism>  (160) 
Homo sapiens

$$$$
CHEMBL1256868
     RDKit          2D

 28 32  0  0  0  0  0  0  0  0999 V2000
   -9.8577    7.9649    0.0000 C   0  0  0  0  0  0  0  0  0  0  0  0
   -9.7009    6.4731    0.0000 O   0  0  0  0  0  0  0  0  0  0  0  0
   -8.3306    5.8630    0.0000 C   0  0  0  0  0  0  0  0  0  0  0  0
   -7.1171    6.7447    0.0000 C   0  0  0  0  0  0  0  0  0  0  0  0
   -5.7468    6.1345    0.0000 C   0  0  0  0  0  0  0  0  0  0  0  0
   -5.5900    4.6428    0.0000 C   0  0  0  0  0  0  0  0  0  0  0  0
   -6.8035    3.7611    0.0000 C   0  0  0  0  0  0  0  0  0  0  0  0
   -8.1738    4.3712    0.0000 C   0  0  0  0  0  0  0  0  0  0  0  0
   -9.3873    3.4895    0.0000 O   0  0  0  0  0  0  0  0  0  0  0  0
  -10.7577    4.0996    0.0000 C   0  0  0  0  0  0  0  0  0  0  0  0
   -6.3400    2.3345    0.0000 C   0  0  0  0  0  0  0  0  0  0  0  0
   -7.2216    1.1210    0.0000 O   0  0  0  0  0  0  0  0  0  0  0  0
   -4.8400    2.3345    0.0000 O   0  0  0  0  0  0  0  0  0  0  0  0
   -4.3764    3.7611    0.0000 C   0  0  0  0  0  0  0  0  0  0  0  0
   -2.9499    4.2246    0.0000 C   0  0  0  0  0  0  0  0  0  0  0  0
   -1.8351    3.2209    0.0000 C   0  0  0  0  0  0  0  0  0  0  0  0
   -2.1470    1.7537    0.0000 C   0  0  0  0  0  0  0  0  0  0  0  0
   -1.0323    0.7500    0.0000 C   0  0  0  0  0  0  0  0  0  0  0  0
    0.3943    1.2135    0.0000 C   0  0  0  0  0  0  0  0  0  0  0  0
    0.7062    2.6807    0.0000 C   0  0  0  0  0  0  0  0  0  0  0  0
   -0.4086    3.6844    0.0000 C   0  0  0  0  0  0  0  0  0  0  0  0
   -0.0967    5.1517    0.0000 C   0  0  0  0  0  0  0  0  0  0  0  0
   -1.2114    6.1554    0.0000 C   0  0  0  0  0  0  0  0  0  0  0  0
   -2.6380    5.6918    0.0000 N   0  0  0  0  0  0  0  0  0  0  0  0
   -3.7527    6.6955    0.0000 C   0  0  0  0  0  0  0  0  0  0  0  0
    1.2760    0.0000    0.0000 O   0  0  0  0  0  0  0  0  0  0  0  0
    0.3943   -1.2135    0.0000 C   0  0  0  0  0  0  0  0  0  0  0  0
   -1.0323   -0.7500    0.0000 O   0  0  0  0  0  0  0  0  0  0  0  0
  1  2  1  0
  2  3  1  0
  3  4  2  0
  4  5  1  0
  5  6  2  0
  6  7  1  0
  7  8  2  0
  8  9  1  0
  9 10  1  0
  7 11  1  0
 11 12  2  0
 11 13  1  0
 13 14  1  0
 14 15  1  0
 15 16  1  0
 16 17  2  0
 17 18  1  0
 18 19  2  0
 19 20  1  0
 20 21  2  0
 21 22  1  0
 22 23  1  0
 23 24  1  0
 24 25  1  0
 19 26  1  0
 26 27  1  0
 27 28  1  0
  8  3  1  0
 24 15  1  0
 14  6  1  0
 21 16  1  0
 28 18  1  0
M  END
>  <assay_description>  (161) 
Inhibition of human BSEP expressed in baculovirus transfected fall armyworm Sf21 cell membranes vesicles assessed as reduction in ATP-dependent [3H]-taurocholate transport into vesicles incubated for 5 mins by Topcount based rapid filtration method

>  <molecule_pref_name>  (161) 
None

>  <canonical_smiles>  (161) 
COc1ccc2c(c1OC)C(=O)OC2C1c2cc3c(cc2CCN1C)OCO3

>  <pchembl_value>  (161) 
4.18

>  <standard_type>  (161) 
IC50

>  <standard_relation>  (161) 
=

>  <standard_value>  (161) 
65640.0

>  <standard_units>  (161) 
nM

>  <target_pref_name>  (161) 
Bile salt export pump

>  <target_organism>  (161) 
Homo sapiens

$$$$
CHEMBL4068169
     RDKit          2D

 34 38  0  0  0  0  0  0  0  0999 V2000
   -5.2500   -3.8971    0.0000 C   0  0  0  0  0  0  0  0  0  0  0  0
   -3.7500   -3.8971    0.0000 O   0  0  0  0  0  0  0  0  0  0  0  0
   -3.0000   -2.5981    0.0000 C   0  0  0  0  0  0  0  0  0  0  0  0
   -1.5000   -2.5981    0.0000 C   0  0  0  0  0  0  0  0  0  0  0  0
   -0.7500   -1.2990    0.0000 C   0  0  0  0  0  0  0  0  0  0  0  0
    0.7500   -1.2990    0.0000 C   0  0  0  0  0  0  0  0  0  0  0  0
    1.5000   -2.5981    0.0000 O   0  0  0  0  0  0  0  0  0  0  0  0
    3.0000   -2.5981    0.0000 C   0  0  0  0  0  0  0  0  0  0  0  0
    3.7500   -1.2990    0.0000 C   0  0  0  0  0  0  0  0  0  0  0  0
    5.2500   -1.2990    0.0000 C   0  0  0  0  0  0  0  0  0  0  0  0
    6.0000   -2.5981    0.0000 C   0  0  0  0  0  0  0  0  0  0  0  0
    7.4672   -2.9099    0.0000 N   0  0  0  0  0  0  0  0  0  0  0  0
    7.6240   -4.4017    0.0000 C   0  0  0  0  0  0  0  0  0  0  0  0
    8.9231   -5.1517    0.0000 C   0  0  0  0  0  0  0  0  0  0  0  0
    6.2537   -5.0118    0.0000 C   0  0  0  0  0  0  0  0  0  0  0  0
    5.2500   -3.8971    0.0000 C   0  0  0  0  0  0  0  0  0  0  0  0
    3.7500   -3.8971    0.0000 C   0  0  0  0  0  0  0  0  0  0  0  0
    3.0000   -5.1962    0.0000 F   0  0  0  0  0  0  0  0  0  0  0  0
    1.5000    0.0000    0.0000 N   0  0  0  0  0  0  0  0  0  0  0  0
    0.7500    1.2990    0.0000 C   0  0  0  0  0  0  0  0  0  0  0  0
   -0.7500    1.2990    0.0000 N   0  0  0  0  0  0  0  0  0  0  0  0
   -1.5000    0.0000    0.0000 C   0  0  0  0  0  0  0  0  0  0  0  0
   -3.0000    0.0000    0.0000 C   0  0  0  0  0  0  0  0  0  0  0  0
   -3.7500   -1.2990    0.0000 C   0  0  0  0  0  0  0  0  0  0  0  0
   -5.2500   -1.2990    0.0000 O   0  0  0  0  0  0  0  0  0  0  0  0
   -6.0000    0.0000    0.0000 C   0  0  0  0  0  0  0  0  0  0  0  0
   -7.5000    0.0000    0.0000 C   0  0  0  0  0  0  0  0  0  0  0  0
   -8.2500    1.2990    0.0000 C   0  0  0  0  0  0  0  0  0  0  0  0
   -9.7500    1.2990    0.0000 N   0  0  0  0  0  0  0  0  0  0  0  0
  -10.5000    2.5981    0.0000 C   0  0  0  0  0  0  0  0  0  0  0  0
  -12.0000    2.5981    0.0000 C   0  0  0  0  0  0  0  0  0  0  0  0
  -12.7500    1.2990    0.0000 C   0  0  0  0  0  0  0  0  0  0  0  0
  -12.0000    0.0000    0.0000 C   0  0  0  0  0  0  0  0  0  0  0  0
  -10.5000    0.0000    0.0000 C   0  0  0  0  0  0  0  0  0  0  0  0
  1  2  1  0
  2  3  1  0
  3  4  2  0
  4  5  1  0
  5  6  2  0
  6  7  1  0
  7  8  1  0
  8  9  2  0
  9 10  1  0
 10 11  2  0
 11 12  1  0
 12 13  1  0
 13 14  1  0
 13 15  2  0
 15 16  1  0
 16 17  2  0
 17 18  1  0
  6 19  1  0
 19 20  2  0
 20 21  1  0
 21 22  2  0
 22 23  1  0
 23 24  2  0
 24 25  1  0
 25 26  1  0
 26 27  1  0
 27 28  1  0
 28 29  1  0
 29 30  1  0
 30 31  1  0
 31 32  1  0
 32 33  1  0
 33 34  1  0
 24  3  1  0
 34 29  1  0
 22  5  1  0
 17  8  1  0
 16 11  1  0
M  END
>  <assay_description>  (162) 
Inhibition of human BSEP expressed in baculovirus transfected fall armyworm Sf21 cell membranes vesicles assessed as reduction in ATP-dependent [3H]-taurocholate transport into vesicles incubated for 5 mins by Topcount based rapid filtration method

>  <molecule_pref_name>  (162) 
None

>  <canonical_smiles>  (162) 
COc1cc2c(Oc3ccc4[nH]c(C)cc4c3F)ncnc2cc1OCCCN1CCCCC1

>  <pchembl_value>  (162) 
4.64

>  <standard_type>  (162) 
IC50

>  <standard_relation>  (162) 
=

>  <standard_value>  (162) 
22730.0

>  <standard_units>  (162) 
nM

>  <target_pref_name>  (162) 
Bile salt export pump

>  <target_organism>  (162) 
Homo sapiens

$$$$
CHEMBL4086898
     RDKit          2D

 31 34  0  0  0  0  0  0  0  0999 V2000
   -8.7135  -10.5199    0.0000 C   0  0  0  0  0  0  0  0  0  0  0  0
   -7.9635   -9.2208    0.0000 C   0  0  0  0  0  0  0  0  0  0  0  0
   -8.7135   -7.9218    0.0000 O   0  0  0  0  0  0  0  0  0  0  0  0
   -6.4635   -9.2208    0.0000 O   0  0  0  0  0  0  0  0  0  0  0  0
   -5.7135   -7.9218    0.0000 C   0  0  0  0  0  0  0  0  0  0  0  0
   -4.2135   -7.9218    0.0000 C   0  0  0  0  0  0  0  0  0  0  0  0
   -3.4635   -9.2208    0.0000 O   0  0  0  0  0  0  0  0  0  0  0  0
   -3.4635   -6.6227    0.0000 C   0  0  0  0  0  0  0  0  0  0  0  0
   -4.8980   -6.1842    0.0000 O   0  0  0  0  0  0  0  0  0  0  0  0
   -2.2500   -7.5044    0.0000 C   0  0  0  0  0  0  0  0  0  0  0  0
   -2.2500   -9.0044    0.0000 C   0  0  0  0  0  0  0  0  0  0  0  0
   -1.0365   -6.6227    0.0000 C   0  0  0  0  0  0  0  0  0  0  0  0
   -1.5000   -5.1962    0.0000 C   0  0  0  0  0  0  0  0  0  0  0  0
   -0.7500   -3.8971    0.0000 C   0  0  0  0  0  0  0  0  0  0  0  0
    0.7500   -3.8971    0.0000 C   0  0  0  0  0  0  0  0  0  0  0  0
    1.5000   -2.5981    0.0000 C   0  0  0  0  0  0  0  0  0  0  0  0
    3.0000   -2.5981    0.0000 F   0  0  0  0  0  0  0  0  0  0  0  0
    0.7500   -1.2990    0.0000 C   0  0  0  0  0  0  0  0  0  0  0  0
    1.5000    0.0000    0.0000 C   0  0  0  0  0  0  0  0  0  0  0  0
    0.7500    1.2990    0.0000 C   0  0  0  0  0  0  0  0  0  0  0  0
    1.5000    2.5981    0.0000 O   0  0  0  0  0  0  0  0  0  0  0  0
   -0.7500    1.2990    0.0000 C   0  0  0  0  0  0  0  0  0  0  0  0
   -1.5000    0.0000    0.0000 C   0  0  0  0  0  0  0  0  0  0  0  0
   -0.7500   -1.2990    0.0000 C   0  0  0  0  0  0  0  0  0  0  0  0
   -2.2500   -1.2990    0.0000 C   0  0  0  0  0  0  0  0  0  0  0  0
   -1.5000   -2.5981    0.0000 C   0  0  0  0  0  0  0  0  0  0  0  0
   -3.0000   -2.5981    0.0000 C   0  0  0  0  0  0  0  0  0  0  0  0
   -3.7500   -1.2990    0.0000 O   0  0  0  0  0  0  0  0  0  0  0  0
   -3.7500   -3.8971    0.0000 C   0  0  0  0  0  0  0  0  0  0  0  0
   -3.0000   -5.1962    0.0000 C   0  0  0  0  0  0  0  0  0  0  0  0
   -4.4998   -5.1699    0.0000 C   0  0  0  0  0  0  0  0  0  0  0  0
  1  2  1  0
  2  3  2  0
  2  4  1  0
  4  5  1  0
  5  6  1  0
  6  7  2  0
  6  8  1  0
  8  9  1  0
  8 10  1  0
 10 11  1  0
 10 12  1  0
 12 13  1  0
 13 14  1  0
 14 15  1  0
 15 16  1  0
 16 17  1  0
 16 18  1  0
 18 19  2  0
 19 20  1  0
 20 21  2  0
 20 22  1  0
 22 23  2  0
 23 24  1  0
 24 25  1  0
 24 26  1  0
 26 27  1  0
 27 28  1  0
 27 29  1  0
 29 30  1  0
 30 31  1  0
 30  8  1  0
 30 13  1  0
 26 14  1  0
 24 18  1  0
M  END
>  <assay_description>  (163) 
Inhibition of human BSEP expressed in baculovirus transfected fall armyworm Sf21 cell membranes vesicles assessed as reduction in ATP-dependent [3H]-taurocholate transport into vesicles incubated for 5 mins by Topcount based rapid filtration method

>  <molecule_pref_name>  (163) 
None

>  <canonical_smiles>  (163) 
CC(=O)OCC(=O)C1(O)C(C)CC2C3CC(F)C4=CC(=O)C=CC4(C)C3C(O)CC21C

>  <pchembl_value>  (163) 
4.47

>  <standard_type>  (163) 
IC50

>  <standard_relation>  (163) 
=

>  <standard_value>  (163) 
33560.0

>  <standard_units>  (163) 
nM

>  <target_pref_name>  (163) 
Bile salt export pump

>  <target_organism>  (163) 
Homo sapiens

$$$$
CHEMBL1429218
     RDKit          2D

 18 21  0  0  0  0  0  0  0  0999 V2000
    1.5000    0.0000    0.0000 C   0  0  0  0  0  0  0  0  0  0  0  0
    0.7500   -1.2990    0.0000 C   0  0  0  0  0  0  0  0  0  0  0  0
   -0.7500   -1.2990    0.0000 C   0  0  0  0  0  0  0  0  0  0  0  0
   -1.5000    0.0000    0.0000 C   0  0  0  0  0  0  0  0  0  0  0  0
   -2.9672    0.3119    0.0000 N   0  0  0  0  0  0  0  0  0  0  0  0
   -3.1240    1.8037    0.0000 C   0  0  0  0  0  0  0  0  0  0  0  0
   -4.4231    2.5537    0.0000 C   0  0  0  0  0  0  0  0  0  0  0  0
   -4.5798    4.0454    0.0000 N   0  0  0  0  0  0  0  0  0  0  0  0
   -6.0471    4.3573    0.0000 C   0  0  0  0  0  0  0  0  0  0  0  0
   -6.7971    5.6563    0.0000 C   0  0  0  0  0  0  0  0  0  0  0  0
   -8.2971    5.6563    0.0000 C   0  0  0  0  0  0  0  0  0  0  0  0
   -9.0471    4.3573    0.0000 C   0  0  0  0  0  0  0  0  0  0  0  0
   -8.2971    3.0583    0.0000 C   0  0  0  0  0  0  0  0  0  0  0  0
   -6.7971    3.0583    0.0000 C   0  0  0  0  0  0  0  0  0  0  0  0
   -5.7934    1.9435    0.0000 N   0  0  0  0  0  0  0  0  0  0  0  0
   -1.7537    2.4138    0.0000 N   0  0  0  0  0  0  0  0  0  0  0  0
   -0.7500    1.2990    0.0000 C   0  0  0  0  0  0  0  0  0  0  0  0
    0.7500    1.2990    0.0000 C   0  0  0  0  0  0  0  0  0  0  0  0
  1  2  2  0
  2  3  1  0
  3  4  2  0
  4  5  1  0
  5  6  1  0
  6  7  1  0
  7  8  2  0
  8  9  1  0
  9 10  2  0
 10 11  1  0
 11 12  2  0
 12 13  1  0
 13 14  2  0
 14 15  1  0
  6 16  2  0
 16 17  1  0
 17 18  2  0
 18  1  1  0
 17  4  1  0
 15  7  1  0
 14  9  1  0
M  END
>  <assay_description>  (164) 
Inhibition of human BSEP expressed in baculovirus transfected fall armyworm Sf21 cell membranes vesicles assessed as reduction in ATP-dependent [3H]-taurocholate transport into vesicles incubated for 5 mins by Topcount based rapid filtration method

>  <molecule_pref_name>  (164) 
None

>  <canonical_smiles>  (164) 
c1ccc2[nH]c(-c3nc4ccccc4[nH]3)nc2c1

>  <pchembl_value>  (164) 
4.50

>  <standard_type>  (164) 
IC50

>  <standard_relation>  (164) 
=

>  <standard_value>  (164) 
31330.0

>  <standard_units>  (164) 
nM

>  <target_pref_name>  (164) 
Bile salt export pump

>  <target_organism>  (164) 
Homo sapiens

$$$$
CHEMBL402487
     RDKit          2D

 30 34  0  0  0  0  0  0  0  0999 V2000
    5.5434   10.9389    0.0000 C   0  0  0  0  0  0  0  0  0  0  0  0
    4.0434   10.9389    0.0000 O   0  0  0  0  0  0  0  0  0  0  0  0
    3.2934    9.6399    0.0000 C   0  0  0  0  0  0  0  0  0  0  0  0
    1.7934    9.6399    0.0000 C   0  0  0  0  0  0  0  0  0  0  0  0
    1.0434    8.3408    0.0000 C   0  0  0  0  0  0  0  0  0  0  0  0
    1.7934    7.0418    0.0000 C   0  0  0  0  0  0  0  0  0  0  0  0
    3.2934    7.0418    0.0000 C   0  0  0  0  0  0  0  0  0  0  0  0
    4.0434    8.3408    0.0000 C   0  0  0  0  0  0  0  0  0  0  0  0
    5.5434    8.3408    0.0000 O   0  0  0  0  0  0  0  0  0  0  0  0
    6.2934    7.0418    0.0000 C   0  0  0  0  0  0  0  0  0  0  0  0
    3.7570    5.6152    0.0000 C   0  0  0  0  0  0  0  0  0  0  0  0
    5.1835    5.1517    0.0000 O   0  0  0  0  0  0  0  0  0  0  0  0
    2.5434    4.7335    0.0000 O   0  0  0  0  0  0  0  0  0  0  0  0
    1.3299    5.6152    0.0000 C   0  0  0  0  0  0  0  0  0  0  0  0
   -0.0967    5.1517    0.0000 C   0  0  0  0  0  0  0  0  0  0  0  0
   -0.4086    3.6844    0.0000 C   0  0  0  0  0  0  0  0  0  0  0  0
   -1.8351    3.2209    0.0000 C   0  0  0  0  0  0  0  0  0  0  0  0
   -2.1470    1.7537    0.0000 C   0  0  0  0  0  0  0  0  0  0  0  0
   -1.0323    0.7500    0.0000 C   0  0  0  0  0  0  0  0  0  0  0  0
    0.3943    1.2135    0.0000 C   0  0  0  0  0  0  0  0  0  0  0  0
    0.7062    2.6807    0.0000 C   0  0  0  0  0  0  0  0  0  0  0  0
    2.1328    3.1443    0.0000 O   0  0  0  0  0  0  0  0  0  0  0  0
    3.2475    2.1406    0.0000 C   0  0  0  0  0  0  0  0  0  0  0  0
    1.2760    0.0000    0.0000 O   0  0  0  0  0  0  0  0  0  0  0  0
    0.3943   -1.2135    0.0000 C   0  0  0  0  0  0  0  0  0  0  0  0
   -1.0323   -0.7500    0.0000 O   0  0  0  0  0  0  0  0  0  0  0  0
   -2.9499    4.2246    0.0000 C   0  0  0  0  0  0  0  0  0  0  0  0
   -2.6380    5.6918    0.0000 C   0  0  0  0  0  0  0  0  0  0  0  0
   -1.2114    6.1554    0.0000 N   0  0  0  0  0  0  0  0  0  0  0  0
   -0.8995    7.6226    0.0000 C   0  0  0  0  0  0  0  0  0  0  0  0
  1  2  1  0
  2  3  1  0
  3  4  2  0
  4  5  1  0
  5  6  2  0
  6  7  1  0
  7  8  2  0
  8  9  1  0
  9 10  1  0
  7 11  1  0
 11 12  2  0
 11 13  1  0
 13 14  1  0
 14 15  1  0
 15 16  1  0
 16 17  1  0
 17 18  2  0
 18 19  1  0
 19 20  2  0
 20 21  1  0
 21 22  1  0
 22 23  1  0
 20 24  1  0
 24 25  1  0
 25 26  1  0
 17 27  1  0
 27 28  1  0
 28 29  1  0
 29 30  1  0
  8  3  1  0
 29 15  1  0
 14  6  1  0
 21 16  2  0
 26 19  1  0
M  END
>  <assay_description>  (165) 
Inhibition of human BSEP expressed in baculovirus transfected fall armyworm Sf21 cell membranes vesicles assessed as reduction in ATP-dependent [3H]-taurocholate transport into vesicles incubated for 5 mins by Topcount based rapid filtration method

>  <molecule_pref_name>  (165) 
None

>  <canonical_smiles>  (165) 
COc1ccc2c(c1OC)C(=O)OC2C1c2c(cc3c(c2OC)OCO3)CCN1C

>  <pchembl_value>  (165) 
4.62

>  <standard_type>  (165) 
IC50

>  <standard_relation>  (165) 
=

>  <standard_value>  (165) 
23910.0

>  <standard_units>  (165) 
nM

>  <target_pref_name>  (165) 
Bile salt export pump

>  <target_organism>  (165) 
Homo sapiens

$$$$
CHEMBL595583
     RDKit          2D

 27 28  0  0  0  0  0  0  0  0999 V2000
   15.0000   -7.7942    0.0000 C   0  0  0  0  0  0  0  0  0  0  0  0
   14.2500   -6.4952    0.0000 C   0  0  0  0  0  0  0  0  0  0  0  0
   12.7500   -6.4952    0.0000 C   0  0  0  0  0  0  0  0  0  0  0  0
   12.0000   -5.1962    0.0000 C   0  0  0  0  0  0  0  0  0  0  0  0
   10.5000   -5.1962    0.0000 C   0  0  0  0  0  0  0  0  0  0  0  0
    9.7500   -3.8971    0.0000 C   0  0  0  0  0  0  0  0  0  0  0  0
    8.2500   -3.8971    0.0000 C   0  0  0  0  0  0  0  0  0  0  0  0
    7.5000   -2.5981    0.0000 C   0  0  0  0  0  0  0  0  0  0  0  0
    6.0000   -2.5981    0.0000 C   0  0  0  0  0  0  0  0  0  0  0  0
    5.2500   -1.2990    0.0000 C   0  0  0  0  0  0  0  0  0  0  0  0
    3.7500   -1.2990    0.0000 C   0  0  0  0  0  0  0  0  0  0  0  0
    3.0000    0.0000    0.0000 C   0  0  0  0  0  0  0  0  0  0  0  0
    1.5000    0.0000    0.0000 C   0  0  0  0  0  0  0  0  0  0  0  0
    0.7500   -1.2990    0.0000 C   0  0  0  0  0  0  0  0  0  0  0  0
   -0.7500   -1.2990    0.0000 C   0  0  0  0  0  0  0  0  0  0  0  0
   -1.5000    0.0000    0.0000 C   0  0  0  0  0  0  0  0  0  0  0  0
   -3.0000    0.0000    0.0000 S   0  0  0  0  0  0  0  0  0  0  0  0
   -3.0000    1.5000    0.0000 O   0  0  0  0  0  0  0  0  0  0  0  0
   -3.0000   -1.5000    0.0000 O   0  0  0  0  0  0  0  0  0  0  0  0
   -4.5000    0.0000    0.0000 N   0  0  0  0  0  0  0  0  0  0  0  0
   -5.2500   -1.2990    0.0000 C   0  0  0  0  0  0  0  0  0  0  0  0
   -4.6399   -2.6694    0.0000 N   0  0  0  0  0  0  0  0  0  0  0  0
   -5.7546   -3.6731    0.0000 N   0  0  0  0  0  0  0  0  0  0  0  0
   -7.0537   -2.9231    0.0000 C   0  0  0  0  0  0  0  0  0  0  0  0
   -6.7418   -1.4558    0.0000 S   0  0  0  0  0  0  0  0  0  0  0  0
   -0.7500    1.2990    0.0000 C   0  0  0  0  0  0  0  0  0  0  0  0
    0.7500    1.2990    0.0000 C   0  0  0  0  0  0  0  0  0  0  0  0
  1  2  1  0
  2  3  1  0
  3  4  1  0
  4  5  1  0
  5  6  1  0
  6  7  1  0
  7  8  1  0
  8  9  1  0
  9 10  1  0
 10 11  1  0
 11 12  1  0
 12 13  1  0
 13 14  2  0
 14 15  1  0
 15 16  2  0
 16 17  1  0
 17 18  2  0
 17 19  2  0
 17 20  1  0
 20 21  1  0
 21 22  2  0
 22 23  1  0
 23 24  2  0
 24 25  1  0
 16 26  1  0
 26 27  2  0
 27 13  1  0
 25 21  1  0
M  END
>  <assay_description>  (166) 
Inhibition of human BSEP expressed in baculovirus transfected fall armyworm Sf21 cell membranes vesicles assessed as reduction in ATP-dependent [3H]-taurocholate transport into vesicles incubated for 5 mins by Topcount based rapid filtration method

>  <molecule_pref_name>  (166) 
None

>  <canonical_smiles>  (166) 
CCCCCCCCCCCCc1ccc(S(=O)(=O)Nc2nncs2)cc1

>  <pchembl_value>  (166) 
4.68

>  <standard_type>  (166) 
IC50

>  <standard_relation>  (166) 
=

>  <standard_value>  (166) 
21040.0

>  <standard_units>  (166) 
nM

>  <target_pref_name>  (166) 
Bile salt export pump

>  <target_organism>  (166) 
Homo sapiens

$$$$
CHEMBL1162
     RDKit          2D

 22 25  0  0  0  0  0  0  0  0999 V2000
   -4.9635   -9.2208    0.0000 C   0  0  0  0  0  0  0  0  0  0  0  0
   -4.2135   -7.9218    0.0000 C   0  0  0  0  0  0  0  0  0  0  0  0
   -3.4635   -6.6227    0.0000 C   0  0  0  0  0  0  0  0  0  0  0  0
   -4.8980   -6.1842    0.0000 O   0  0  0  0  0  0  0  0  0  0  0  0
   -2.2500   -7.5044    0.0000 C   0  0  0  0  0  0  0  0  0  0  0  0
   -1.0365   -6.6227    0.0000 C   0  0  0  0  0  0  0  0  0  0  0  0
   -1.5000   -5.1962    0.0000 C   0  0  0  0  0  0  0  0  0  0  0  0
   -0.7500   -3.8971    0.0000 C   0  0  0  0  0  0  0  0  0  0  0  0
    0.7500   -3.8971    0.0000 C   0  0  0  0  0  0  0  0  0  0  0  0
    1.5000   -2.5981    0.0000 C   0  0  0  0  0  0  0  0  0  0  0  0
    0.7500   -1.2990    0.0000 C   0  0  0  0  0  0  0  0  0  0  0  0
    1.5000    0.0000    0.0000 C   0  0  0  0  0  0  0  0  0  0  0  0
    0.7500    1.2990    0.0000 C   0  0  0  0  0  0  0  0  0  0  0  0
    1.5000    2.5981    0.0000 O   0  0  0  0  0  0  0  0  0  0  0  0
   -0.7500    1.2990    0.0000 C   0  0  0  0  0  0  0  0  0  0  0  0
   -1.5000    0.0000    0.0000 C   0  0  0  0  0  0  0  0  0  0  0  0
   -0.7500   -1.2990    0.0000 C   0  0  0  0  0  0  0  0  0  0  0  0
   -1.5000   -2.5981    0.0000 C   0  0  0  0  0  0  0  0  0  0  0  0
   -3.0000   -2.5981    0.0000 C   0  0  0  0  0  0  0  0  0  0  0  0
   -3.7500   -3.8971    0.0000 C   0  0  0  0  0  0  0  0  0  0  0  0
   -3.0000   -5.1962    0.0000 C   0  0  0  0  0  0  0  0  0  0  0  0
   -4.4998   -5.1699    0.0000 C   0  0  0  0  0  0  0  0  0  0  0  0
  1  2  3  0
  2  3  1  0
  3  4  1  6
  3  5  1  0
  5  6  1  0
  7  6  1  6
  7  8  1  0
  8  9  1  1
  9 10  1  0
 10 11  1  0
 11 12  2  0
 12 13  1  0
 13 14  2  0
 13 15  1  0
 15 16  1  0
 17 16  1  1
 17 18  1  0
 18 19  1  6
 19 20  1  0
 20 21  1  0
 21 22  1  6
 21  3  1  0
 21  7  1  0
 18  8  1  0
 17 11  1  0
M  END
>  <assay_description>  (167) 
Inhibition of human BSEP expressed in baculovirus transfected fall armyworm Sf21 cell membranes vesicles assessed as reduction in ATP-dependent [3H]-taurocholate transport into vesicles incubated for 5 mins by Topcount based rapid filtration method

>  <molecule_pref_name>  (167) 
NORETHINDRONE

>  <canonical_smiles>  (167) 
C#C[C@]1(O)CC[C@H]2[C@@H]3CCC4=CC(=O)CC[C@@H]4[C@H]3CC[C@@]21C

>  <pchembl_value>  (167) 
4.73

>  <standard_type>  (167) 
IC50

>  <standard_relation>  (167) 
=

>  <standard_value>  (167) 
18460.0

>  <standard_units>  (167) 
nM

>  <target_pref_name>  (167) 
Bile salt export pump

>  <target_organism>  (167) 
Homo sapiens

$$$$
CHEMBL4066640
     RDKit          2D

 30 31  0  0  0  0  0  0  0  0999 V2000
    5.2500   -1.2990    0.0000 C   0  0  0  0  0  0  0  0  0  0  0  0
    3.7500   -1.2990    0.0000 C   0  0  0  0  0  0  0  0  0  0  0  0
    3.0000    0.0000    0.0000 O   0  0  0  0  0  0  0  0  0  0  0  0
    1.5000    0.0000    0.0000 C   0  0  0  0  0  0  0  0  0  0  0  0
    0.7500   -1.2990    0.0000 C   0  0  0  0  0  0  0  0  0  0  0  0
   -0.7500   -1.2990    0.0000 C   0  0  0  0  0  0  0  0  0  0  0  0
   -1.5000    0.0000    0.0000 C   0  0  0  0  0  0  0  0  0  0  0  0
   -3.0000    0.0000    0.0000 C   0  0  0  0  0  0  0  0  0  0  0  0
   -4.5000    0.0000    0.0000 F   0  0  0  0  0  0  0  0  0  0  0  0
   -3.0000    1.5000    0.0000 F   0  0  0  0  0  0  0  0  0  0  0  0
   -3.0000   -1.5000    0.0000 F   0  0  0  0  0  0  0  0  0  0  0  0
   -0.7500    1.2990    0.0000 C   0  0  0  0  0  0  0  0  0  0  0  0
    0.7500    1.2990    0.0000 C   0  0  0  0  0  0  0  0  0  0  0  0
    1.5000    2.5981    0.0000 C   0  0  0  0  0  0  0  0  0  0  0  0
    3.0000    2.5981    0.0000 C   0  0  0  0  0  0  0  0  0  0  0  0
    3.7500    3.8971    0.0000 C   0  0  0  0  0  0  0  0  0  0  0  0
    3.0000    5.1962    0.0000 C   0  0  0  0  0  0  0  0  0  0  0  0
    3.7500    6.4952    0.0000 S   0  0  0  0  0  0  0  0  0  0  0  0
    4.5000    7.7942    0.0000 C   0  0  0  0  0  0  0  0  0  0  0  0
    2.7797    7.2264    0.0000 O   0  0  0  0  0  0  0  0  0  0  0  0
    5.0490    5.7452    0.0000 O   0  0  0  0  0  0  0  0  0  0  0  0
    1.5000    5.1962    0.0000 C   0  0  0  0  0  0  0  0  0  0  0  0
    0.7500    6.4952    0.0000 C   0  0  0  0  0  0  0  0  0  0  0  0
    0.0000    7.7942    0.0000 F   0  0  0  0  0  0  0  0  0  0  0  0
    1.7203    7.2264    0.0000 F   0  0  0  0  0  0  0  0  0  0  0  0
   -0.5490    5.7452    0.0000 F   0  0  0  0  0  0  0  0  0  0  0  0
    0.7500    3.8971    0.0000 C   0  0  0  0  0  0  0  0  0  0  0  0
    3.0000   -2.5981    0.0000 C   0  0  0  0  0  0  0  0  0  0  0  0
    1.5000   -2.5981    0.0000 O   0  0  0  0  0  0  0  0  0  0  0  0
    3.7500   -3.8971    0.0000 O   0  0  0  0  0  0  0  0  0  0  0  0
  2  1  1  1
  2  3  1  0
  3  4  1  0
  4  5  2  0
  5  6  1  0
  6  7  2  0
  7  8  1  0
  8  9  1  0
  8 10  1  0
  8 11  1  0
  7 12  1  0
 12 13  2  0
 13 14  1  0
 14 15  2  0
 15 16  1  0
 16 17  2  0
 17 18  1  0
 18 19  1  0
 18 20  2  0
 18 21  2  0
 17 22  1  0
 22 23  1  0
 23 24  1  0
 23 25  1  0
 23 26  1  0
 22 27  2  0
  2 28  1  0
 28 29  2  0
 28 30  1  0
 13  4  1  0
 27 14  1  0
M  END
>  <assay_description>  (168) 
Inhibition of human BSEP expressed in baculovirus transfected fall armyworm Sf21 cell membranes vesicles assessed as reduction in ATP-dependent [3H]-taurocholate transport into vesicles incubated for 5 mins by Topcount based rapid filtration method

>  <molecule_pref_name>  (168) 
None

>  <canonical_smiles>  (168) 
C[C@H](Oc1ccc(C(F)(F)F)cc1-c1ccc(S(C)(=O)=O)c(C(F)(F)F)c1)C(=O)O

>  <pchembl_value>  (168) 
4.45

>  <standard_type>  (168) 
IC50

>  <standard_relation>  (168) 
=

>  <standard_value>  (168) 
35840.0

>  <standard_units>  (168) 
nM

>  <target_pref_name>  (168) 
Bile salt export pump

>  <target_organism>  (168) 
Homo sapiens

$$$$
CHEMBL1498
     RDKit          2D

 24 27  0  0  0  0  0  0  0  0999 V2000
   -4.4918   -5.3529    0.0000 C   0  0  0  0  0  0  0  0  0  0  0  0
   -3.0000   -5.1962    0.0000 C   0  0  0  0  0  0  0  0  0  0  0  0
   -3.7500   -3.8971    0.0000 C   0  0  0  0  0  0  0  0  0  0  0  0
   -3.0000   -2.5981    0.0000 C   0  0  0  0  0  0  0  0  0  0  0  0
   -1.5000   -2.5981    0.0000 C   0  0  0  0  0  0  0  0  0  0  0  0
   -0.7500   -3.8971    0.0000 C   0  0  0  0  0  0  0  0  0  0  0  0
    0.7500   -3.8971    0.0000 C   0  0  0  0  0  0  0  0  0  0  0  0
    1.5000   -2.5981    0.0000 C   0  0  0  0  0  0  0  0  0  0  0  0
    0.7500   -1.2990    0.0000 C   0  0  0  0  0  0  0  0  0  0  0  0
    1.5000    0.0000    0.0000 C   0  0  0  0  0  0  0  0  0  0  0  0
    0.7500    1.2990    0.0000 C   0  0  0  0  0  0  0  0  0  0  0  0
    1.5000    2.5981    0.0000 O   0  0  0  0  0  0  0  0  0  0  0  0
   -0.7500    1.2990    0.0000 C   0  0  0  0  0  0  0  0  0  0  0  0
   -1.5000    0.0000    0.0000 C   0  0  0  0  0  0  0  0  0  0  0  0
   -0.7500   -1.2990    0.0000 C   0  0  0  0  0  0  0  0  0  0  0  0
   -2.2500   -1.2990    0.0000 C   0  0  0  0  0  0  0  0  0  0  0  0
   -1.5000   -5.1962    0.0000 C   0  0  0  0  0  0  0  0  0  0  0  0
   -1.0365   -6.6227    0.0000 C   0  0  0  0  0  0  0  0  0  0  0  0
   -2.2500   -7.5044    0.0000 C   0  0  0  0  0  0  0  0  0  0  0  0
   -3.4635   -6.6227    0.0000 C   0  0  0  0  0  0  0  0  0  0  0  0
   -4.8901   -7.0863    0.0000 C   0  0  0  0  0  0  0  0  0  0  0  0
   -6.0048   -6.0826    0.0000 O   0  0  0  0  0  0  0  0  0  0  0  0
   -5.2020   -8.5535    0.0000 C   0  0  0  0  0  0  0  0  0  0  0  0
   -6.6286   -9.0170    0.0000 O   0  0  0  0  0  0  0  0  0  0  0  0
  2  1  1  6
  2  3  1  0
  3  4  1  0
  5  4  1  6
  5  6  1  0
  6  7  1  1
  7  8  1  0
  8  9  1  0
  9 10  2  0
 10 11  1  0
 11 12  2  0
 11 13  1  0
 13 14  1  0
 14 15  1  0
 15 16  1  6
  6 17  1  0
 17 18  1  6
 18 19  1  0
 19 20  1  0
 20 21  1  6
 21 22  2  0
 21 23  1  0
 23 24  1  0
 17  2  1  0
 20  2  1  0
 15  5  1  0
 15  9  1  0
M  END
>  <assay_description>  (169) 
Inhibition of human BSEP expressed in baculovirus transfected fall armyworm Sf21 cell membranes vesicles assessed as reduction in ATP-dependent [3H]-taurocholate transport into vesicles incubated for 5 mins by Topcount based rapid filtration method

>  <molecule_pref_name>  (169) 
DESOXYCORTICOSTERONE

>  <canonical_smiles>  (169) 
C[C@]12CC[C@H]3[C@@H](CCC4=CC(=O)CC[C@@]43C)[C@@H]1CC[C@@H]2C(=O)CO

>  <pchembl_value>  (169) 
4.77

>  <standard_type>  (169) 
IC50

>  <standard_relation>  (169) 
=

>  <standard_value>  (169) 
17060.0

>  <standard_units>  (169) 
nM

>  <target_pref_name>  (169) 
Bile salt export pump

>  <target_organism>  (169) 
Homo sapiens

$$$$
CHEMBL131
     RDKit          2D

 26 29  0  0  0  0  0  0  0  0999 V2000
   -4.4998   -5.1699    0.0000 C   0  0  0  0  0  0  0  0  0  0  0  0
   -3.0000   -5.1962    0.0000 C   0  0  0  0  0  0  0  0  0  0  0  0
   -3.7500   -3.8971    0.0000 C   0  0  0  0  0  0  0  0  0  0  0  0
   -3.0000   -2.5981    0.0000 C   0  0  0  0  0  0  0  0  0  0  0  0
   -3.7500   -1.2990    0.0000 O   0  0  0  0  0  0  0  0  0  0  0  0
   -1.5000   -2.5981    0.0000 C   0  0  0  0  0  0  0  0  0  0  0  0
   -0.7500   -3.8971    0.0000 C   0  0  0  0  0  0  0  0  0  0  0  0
    0.7500   -3.8971    0.0000 C   0  0  0  0  0  0  0  0  0  0  0  0
    1.5000   -2.5981    0.0000 C   0  0  0  0  0  0  0  0  0  0  0  0
    0.7500   -1.2990    0.0000 C   0  0  0  0  0  0  0  0  0  0  0  0
    1.5000    0.0000    0.0000 C   0  0  0  0  0  0  0  0  0  0  0  0
    0.7500    1.2990    0.0000 C   0  0  0  0  0  0  0  0  0  0  0  0
    1.5000    2.5981    0.0000 O   0  0  0  0  0  0  0  0  0  0  0  0
   -0.7500    1.2990    0.0000 C   0  0  0  0  0  0  0  0  0  0  0  0
   -1.5000    0.0000    0.0000 C   0  0  0  0  0  0  0  0  0  0  0  0
   -0.7500   -1.2990    0.0000 C   0  0  0  0  0  0  0  0  0  0  0  0
   -2.2500   -1.2990    0.0000 C   0  0  0  0  0  0  0  0  0  0  0  0
   -1.5000   -5.1962    0.0000 C   0  0  0  0  0  0  0  0  0  0  0  0
   -1.0365   -6.6227    0.0000 C   0  0  0  0  0  0  0  0  0  0  0  0
   -2.2500   -7.5044    0.0000 C   0  0  0  0  0  0  0  0  0  0  0  0
   -3.4635   -6.6227    0.0000 C   0  0  0  0  0  0  0  0  0  0  0  0
   -4.8980   -6.1842    0.0000 O   0  0  0  0  0  0  0  0  0  0  0  0
   -4.2135   -7.9218    0.0000 C   0  0  0  0  0  0  0  0  0  0  0  0
   -3.4635   -9.2208    0.0000 O   0  0  0  0  0  0  0  0  0  0  0  0
   -5.7135   -7.9218    0.0000 C   0  0  0  0  0  0  0  0  0  0  0  0
   -6.4635   -9.2208    0.0000 O   0  0  0  0  0  0  0  0  0  0  0  0
  2  1  1  6
  2  3  1  0
  3  4  1  0
  4  5  1  6
  6  4  1  6
  6  7  1  0
  7  8  1  1
  8  9  1  0
  9 10  1  0
 10 11  2  0
 11 12  1  0
 12 13  2  0
 12 14  1  0
 14 15  2  0
 15 16  1  0
 16 17  1  6
  7 18  1  0
 18 19  1  6
 19 20  1  0
 20 21  1  0
 21 22  1  1
 21 23  1  0
 23 24  2  0
 23 25  1  0
 25 26  1  0
 18  2  1  0
 21  2  1  0
 16  6  1  0
 16 10  1  0
M  END
>  <assay_description>  (170) 
Inhibition of human BSEP expressed in baculovirus transfected fall armyworm Sf21 cell membranes vesicles assessed as reduction in ATP-dependent [3H]-taurocholate transport into vesicles incubated for 5 mins by Topcount based rapid filtration method

>  <molecule_pref_name>  (170) 
PREDNISOLONE

>  <canonical_smiles>  (170) 
C[C@]12C[C@H](O)[C@H]3[C@@H](CCC4=CC(=O)C=C[C@@]43C)[C@@H]1CC[C@]2(O)C(=O)CO

>  <pchembl_value>  (170) 
4.04

>  <standard_type>  (170) 
IC50

>  <standard_relation>  (170) 
=

>  <standard_value>  (170) 
91470.0

>  <standard_units>  (170) 
nM

>  <target_pref_name>  (170) 
Bile salt export pump

>  <target_organism>  (170) 
Homo sapiens

$$$$
CHEMBL170
     RDKit          2D

 24 27  0  0  0  0  0  0  0  0999 V2000
    8.2500   -3.8971    0.0000 C   0  0  0  0  0  0  0  0  0  0  0  0
    7.5000   -2.5981    0.0000 C   0  0  0  0  0  0  0  0  0  0  0  0
    6.0000   -2.5981    0.0000 C   0  0  0  0  0  0  0  0  0  0  0  0
    5.2500   -1.2990    0.0000 C   0  0  0  0  0  0  0  0  0  0  0  0
    3.7500   -1.2990    0.0000 N   0  0  0  0  0  0  0  0  0  0  0  0
    3.0000   -2.5981    0.0000 C   0  0  0  0  0  0  0  0  0  0  0  0
    3.7500   -3.8971    0.0000 C   0  0  0  0  0  0  0  0  0  0  0  0
    5.2500   -3.8971    0.0000 C   0  0  0  0  0  0  0  0  0  0  0  0
    4.7954   -3.2106    0.0000 C   0  0  0  0  0  0  0  0  0  0  0  0
    4.1172   -2.0360    0.0000 C   0  0  0  0  0  0  0  0  0  0  0  0
    1.5000   -2.5981    0.0000 C   0  0  0  0  0  0  0  0  0  0  0  0
    0.7500   -3.8971    0.0000 O   0  0  0  0  0  0  0  0  0  0  0  0
    0.7500   -1.2990    0.0000 C   0  0  0  0  0  0  0  0  0  0  0  0
    1.5000    0.0000    0.0000 C   0  0  0  0  0  0  0  0  0  0  0  0
    0.7500    1.2990    0.0000 C   0  0  0  0  0  0  0  0  0  0  0  0
   -0.7500    1.2990    0.0000 N   0  0  0  0  0  0  0  0  0  0  0  0
   -1.5000    0.0000    0.0000 C   0  0  0  0  0  0  0  0  0  0  0  0
   -3.0000    0.0000    0.0000 C   0  0  0  0  0  0  0  0  0  0  0  0
   -3.7500   -1.2990    0.0000 C   0  0  0  0  0  0  0  0  0  0  0  0
   -3.0000   -2.5981    0.0000 C   0  0  0  0  0  0  0  0  0  0  0  0
   -3.7500   -3.8971    0.0000 O   0  0  0  0  0  0  0  0  0  0  0  0
   -5.2500   -3.8971    0.0000 C   0  0  0  0  0  0  0  0  0  0  0  0
   -1.5000   -2.5981    0.0000 C   0  0  0  0  0  0  0  0  0  0  0  0
   -0.7500   -1.2990    0.0000 C   0  0  0  0  0  0  0  0  0  0  0  0
  1  2  2  0
  3  2  1  6
  3  4  1  0
  4  5  1  0
  5  6  1  0
  6  7  1  0
  8  7  1  1
  8  9  1  0
 10  9  1  1
 10 11  1  0
 11 12  1  6
 11 13  1  0
 13 14  2  0
 14 15  1  0
 15 16  2  0
 16 17  1  0
 17 18  2  0
 18 19  1  0
 19 20  2  0
 20 21  1  0
 21 22  1  0
 20 23  1  0
 23 24  2  0
  8  3  1  0
 24 13  1  0
 10  5  1  0
 24 17  1  0
M  END
>  <assay_description>  (171) 
Inhibition of human BSEP expressed in baculovirus transfected fall armyworm Sf21 cell membranes vesicles assessed as reduction in ATP-dependent [3H]-taurocholate transport into vesicles incubated for 5 mins by Topcount based rapid filtration method

>  <molecule_pref_name>  (171) 
QUININE

>  <canonical_smiles>  (171) 
C=C[C@H]1CN2CC[C@H]1C[C@H]2[C@H](O)c1ccnc2ccc(OC)cc12

>  <pchembl_value>  (171) 
4.00

>  <standard_type>  (171) 
IC50

>  <standard_relation>  (171) 
=

>  <standard_value>  (171) 
98830.0

>  <standard_units>  (171) 
nM

>  <target_pref_name>  (171) 
Bile salt export pump

>  <target_organism>  (171) 
Homo sapiens

$$$$
CHEMBL485253
     RDKit          2D

 26 29  0  0  0  0  0  0  0  0999 V2000
    9.7500   -6.4952    0.0000 C   0  0  0  0  0  0  0  0  0  0  0  0
    8.2500   -6.4952    0.0000 C   0  0  0  0  0  0  0  0  0  0  0  0
    7.5000   -5.1962    0.0000 C   0  0  0  0  0  0  0  0  0  0  0  0
    8.2500   -3.8971    0.0000 C   0  0  0  0  0  0  0  0  0  0  0  0
    9.7500   -3.8971    0.0000 O   0  0  0  0  0  0  0  0  0  0  0  0
    6.0000   -5.1962    0.0000 N   0  0  0  0  0  0  0  0  0  0  0  0
    5.2500   -3.8971    0.0000 C   0  0  0  0  0  0  0  0  0  0  0  0
    6.0000   -2.5981    0.0000 O   0  0  0  0  0  0  0  0  0  0  0  0
    3.7500   -3.8971    0.0000 C   0  0  0  0  0  0  0  0  0  0  0  0
    3.0000   -2.5981    0.0000 C   0  0  0  0  0  0  0  0  0  0  0  0
    1.5000   -2.5981    0.0000 C   0  0  0  0  0  0  0  0  0  0  0  0
    0.7500   -1.2990    0.0000 C   0  0  0  0  0  0  0  0  0  0  0  0
    1.5000    0.0000    0.0000 C   0  0  0  0  0  0  0  0  0  0  0  0
    0.7500    1.2990    0.0000 C   0  0  0  0  0  0  0  0  0  0  0  0
   -0.7500    1.2990    0.0000 C   0  0  0  0  0  0  0  0  0  0  0  0
   -1.5000    0.0000    0.0000 C   0  0  0  0  0  0  0  0  0  0  0  0
   -0.7500   -1.2990    0.0000 C   0  0  0  0  0  0  0  0  0  0  0  0
   -1.5000   -2.5981    0.0000 C   0  0  0  0  0  0  0  0  0  0  0  0
   -2.9266   -2.1346    0.0000 C   0  0  0  0  0  0  0  0  0  0  0  0
   -2.9266   -0.6346    0.0000 N   0  0  0  0  0  0  0  0  0  0  0  0
   -4.1401    0.2471    0.0000 C   0  0  0  0  0  0  0  0  0  0  0  0
   -0.7500   -3.8971    0.0000 C   0  0  0  0  0  0  0  0  0  0  0  0
    0.7500   -3.8971    0.0000 C   0  0  0  0  0  0  0  0  0  0  0  0
    1.5000   -5.1962    0.0000 N   0  0  0  0  0  0  0  0  0  0  0  0
    0.7500   -6.4952    0.0000 C   0  0  0  0  0  0  0  0  0  0  0  0
    3.0000   -5.1962    0.0000 C   0  0  0  0  0  0  0  0  0  0  0  0
  1  2  1  0
  2  3  1  0
  3  4  1  0
  4  5  1  0
  3  6  1  0
  6  7  1  0
  7  8  2  0
  9  7  1  1
  9 10  1  0
 10 11  2  0
 11 12  1  0
 12 13  2  0
 13 14  1  0
 14 15  2  0
 15 16  1  0
 16 17  2  0
 17 18  1  0
 18 19  2  0
 19 20  1  0
 20 21  1  0
 18 22  1  0
 23 22  1  6
 23 24  1  0
 24 25  1  0
 24 26  1  0
 26  9  1  0
 23 11  1  0
 17 12  1  0
 20 16  1  0
M  END
>  <assay_description>  (172) 
Inhibition of human BSEP expressed in baculovirus transfected fall armyworm Sf21 cell membranes vesicles assessed as reduction in ATP-dependent [3H]-taurocholate transport into vesicles incubated for 5 mins by Topcount based rapid filtration method

>  <molecule_pref_name>  (172) 
METHYSERGIDE

>  <canonical_smiles>  (172) 
CCC(CO)NC(=O)[C@@H]1C=C2c3cccc4c3c(cn4C)C[C@H]2N(C)C1

>  <pchembl_value>  (172) 
4.48

>  <standard_type>  (172) 
IC50

>  <standard_relation>  (172) 
=

>  <standard_value>  (172) 
33070.0

>  <standard_units>  (172) 
nM

>  <target_pref_name>  (172) 
Bile salt export pump

>  <target_organism>  (172) 
Homo sapiens

$$$$
CHEMBL1592
     RDKit          2D

 32 34  0  0  0  0  0  0  0  0999 V2000
    9.7500   -6.4952    0.0000 C   0  0  0  0  0  0  0  0  0  0  0  0
    8.2500   -6.4952    0.0000 C   0  0  0  0  0  0  0  0  0  0  0  0
    7.5000   -5.1962    0.0000 O   0  0  0  0  0  0  0  0  0  0  0  0
    6.0000   -5.1962    0.0000 C   0  0  0  0  0  0  0  0  0  0  0  0
    5.2500   -6.4952    0.0000 O   0  0  0  0  0  0  0  0  0  0  0  0
    5.2500   -3.8971    0.0000 C   0  0  0  0  0  0  0  0  0  0  0  0
    6.0000   -2.5981    0.0000 C   0  0  0  0  0  0  0  0  0  0  0  0
    7.5000   -2.5981    0.0000 C   0  0  0  0  0  0  0  0  0  0  0  0
    8.2500   -1.2990    0.0000 C   0  0  0  0  0  0  0  0  0  0  0  0
    9.7500   -1.2990    0.0000 C   0  0  0  0  0  0  0  0  0  0  0  0
   10.5000   -0.0000    0.0000 C   0  0  0  0  0  0  0  0  0  0  0  0
    9.7500    1.2990    0.0000 C   0  0  0  0  0  0  0  0  0  0  0  0
    8.2500    1.2990    0.0000 C   0  0  0  0  0  0  0  0  0  0  0  0
    7.5000   -0.0000    0.0000 C   0  0  0  0  0  0  0  0  0  0  0  0
    3.7500   -3.8971    0.0000 N   0  0  0  0  0  0  0  0  0  0  0  0
    3.0000   -5.1962    0.0000 C   0  0  0  0  0  0  0  0  0  0  0  0
    3.7500   -6.4952    0.0000 C   0  0  0  0  0  0  0  0  0  0  0  0
    1.5000   -5.1962    0.0000 C   0  0  0  0  0  0  0  0  0  0  0  0
    0.7500   -6.4952    0.0000 O   0  0  0  0  0  0  0  0  0  0  0  0
    0.7500   -3.8971    0.0000 N   0  0  0  0  0  0  0  0  0  0  0  0
    1.5000   -2.5981    0.0000 C   0  0  0  0  0  0  0  0  0  0  0  0
    0.7500   -1.2990    0.0000 C   0  0  0  0  0  0  0  0  0  0  0  0
    1.5000    0.0000    0.0000 C   0  0  0  0  0  0  0  0  0  0  0  0
    0.7500    1.2990    0.0000 C   0  0  0  0  0  0  0  0  0  0  0  0
   -0.7500    1.2990    0.0000 C   0  0  0  0  0  0  0  0  0  0  0  0
   -1.5000    0.0000    0.0000 C   0  0  0  0  0  0  0  0  0  0  0  0
   -0.7500   -1.2990    0.0000 C   0  0  0  0  0  0  0  0  0  0  0  0
   -1.5000   -2.5981    0.0000 C   0  0  0  0  0  0  0  0  0  0  0  0
   -0.7500   -3.8971    0.0000 C   0  0  0  0  0  0  0  0  0  0  0  0
   -1.5000   -5.1962    0.0000 C   0  0  0  0  0  0  0  0  0  0  0  0
   -0.7500   -6.4952    0.0000 O   0  0  0  0  0  0  0  0  0  0  0  0
   -3.0000   -5.1962    0.0000 O   0  0  0  0  0  0  0  0  0  0  0  0
  1  2  1  0
  2  3  1  0
  3  4  1  0
  4  5  2  0
  4  6  1  0
  6  7  1  1
  7  8  1  0
  8  9  1  0
  9 10  2  0
 10 11  1  0
 11 12  2  0
 12 13  1  0
 13 14  2  0
  6 15  1  0
 15 16  1  0
 16 17  1  1
 16 18  1  0
 18 19  2  0
 18 20  1  0
 20 21  1  0
 21 22  1  0
 22 23  2  0
 23 24  1  0
 24 25  2  0
 25 26  1  0
 26 27  2  0
 27 28  1  0
 28 29  1  0
 29 30  1  6
 30 31  2  0
 30 32  1  0
 14  9  1  0
 29 20  1  0
 27 22  1  0
M  END
>  <assay_description>  (173) 
Inhibition of human BSEP expressed in baculovirus transfected fall armyworm Sf21 cell membranes vesicles assessed as reduction in ATP-dependent [3H]-taurocholate transport into vesicles incubated for 5 mins by Topcount based rapid filtration method

>  <molecule_pref_name>  (173) 
QUINAPRIL

>  <canonical_smiles>  (173) 
CCOC(=O)[C@H](CCc1ccccc1)N[C@@H](C)C(=O)N1Cc2ccccc2C[C@H]1C(=O)O

>  <pchembl_value>  (173) 
4.81

>  <standard_type>  (173) 
IC50

>  <standard_relation>  (173) 
=

>  <standard_value>  (173) 
15500.0

>  <standard_units>  (173) 
nM

>  <target_pref_name>  (173) 
Bile salt export pump

>  <target_organism>  (173) 
Homo sapiens

$$$$
CHEMBL559968
     RDKit          2D

 27 29  0  0  0  0  0  0  0  0999 V2000
   -0.7500   -6.4952    0.0000 O   0  0  0  0  0  0  0  0  0  0  0  0
    0.7500   -6.4952    0.0000 C   0  0  0  0  0  0  0  0  0  0  0  0
    1.5000   -5.1962    0.0000 N   0  0  0  0  0  0  0  0  0  0  0  0
    0.7500   -3.8971    0.0000 C   0  0  0  0  0  0  0  0  0  0  0  0
    1.5000   -2.5981    0.0000 C   0  0  0  0  0  0  0  0  0  0  0  0
    0.7500   -1.2990    0.0000 C   0  0  0  0  0  0  0  0  0  0  0  0
    1.5000    0.0000    0.0000 C   0  0  0  0  0  0  0  0  0  0  0  0
    0.7500    1.2990    0.0000 C   0  0  0  0  0  0  0  0  0  0  0  0
   -0.7500    1.2990    0.0000 C   0  0  0  0  0  0  0  0  0  0  0  0
   -1.5000    0.0000    0.0000 C   0  0  0  0  0  0  0  0  0  0  0  0
   -0.7500   -1.2990    0.0000 C   0  0  0  0  0  0  0  0  0  0  0  0
   -1.5000   -2.5981    0.0000 Cl  0  0  0  0  0  0  0  0  0  0  0  0
    1.5000   -7.7942    0.0000 C   0  0  0  0  0  0  0  0  0  0  0  0
    0.7500   -9.0933    0.0000 C   0  0  0  0  0  0  0  0  0  0  0  0
    1.5000  -10.3923    0.0000 C   0  0  0  0  0  0  0  0  0  0  0  0
    0.7500  -11.6913    0.0000 N   0  0  0  0  0  0  0  0  0  0  0  0
   -0.7500  -11.6913    0.0000 N   0  0  0  0  0  0  0  0  0  0  0  0
   -1.5000  -12.9904    0.0000 C   0  0  0  0  0  0  0  0  0  0  0  0
   -0.7500  -14.2894    0.0000 C   0  0  0  0  0  0  0  0  0  0  0  0
   -1.5000  -15.5885    0.0000 O   0  0  0  0  0  0  0  0  0  0  0  0
    0.7500  -14.2894    0.0000 N   0  0  0  0  0  0  0  0  0  0  0  0
    1.5000  -12.9904    0.0000 C   0  0  0  0  0  0  0  0  0  0  0  0
    3.0000  -12.9904    0.0000 O   0  0  0  0  0  0  0  0  0  0  0  0
    3.0000  -10.3923    0.0000 C   0  0  0  0  0  0  0  0  0  0  0  0
    3.7500   -9.0933    0.0000 C   0  0  0  0  0  0  0  0  0  0  0  0
    3.0000   -7.7942    0.0000 C   0  0  0  0  0  0  0  0  0  0  0  0
    3.7500   -6.4952    0.0000 Cl  0  0  0  0  0  0  0  0  0  0  0  0
  1  2  2  0
  2  3  1  0
  3  4  1  0
  4  5  1  0
  5  6  1  0
  6  7  2  0
  7  8  1  0
  8  9  2  0
  9 10  1  0
 10 11  2  0
 11 12  1  0
  2 13  1  0
 13 14  2  0
 14 15  1  0
 15 16  1  0
 16 17  1  0
 17 18  2  0
 18 19  1  0
 19 20  2  0
 19 21  1  0
 21 22  1  0
 22 23  2  0
 15 24  2  0
 24 25  1  0
 25 26  2  0
 26 27  1  0
 11  6  1  0
 26 13  1  0
 22 16  1  0
M  END
>  <assay_description>  (174) 
Inhibition of human BSEP expressed in baculovirus transfected fall armyworm Sf21 cell membranes vesicles assessed as reduction in ATP-dependent [3H]-taurocholate transport into vesicles incubated for 5 mins by Topcount based rapid filtration method

>  <molecule_pref_name>  (174) 
None

>  <canonical_smiles>  (174) 
O=C(NCCc1ccccc1Cl)c1cc(-n2ncc(=O)[nH]c2=O)ccc1Cl

>  <pchembl_value>  (174) 
4.46

>  <standard_type>  (174) 
IC50

>  <standard_relation>  (174) 
=

>  <standard_value>  (174) 
34420.0

>  <standard_units>  (174) 
nM

>  <target_pref_name>  (174) 
Bile salt export pump

>  <target_organism>  (174) 
Homo sapiens

$$$$
CHEMBL603584
     RDKit          2D

 29 31  0  0  0  0  0  0  0  0999 V2000
    5.8189   -9.1584    0.0000 C   0  0  0  0  0  0  0  0  0  0  0  0
    6.0424   -7.6751    0.0000 O   0  0  0  0  0  0  0  0  0  0  0  0
    4.8697   -6.7399    0.0000 C   0  0  0  0  0  0  0  0  0  0  0  0
    3.4734   -7.2879    0.0000 C   0  0  0  0  0  0  0  0  0  0  0  0
    2.3006   -6.3527    0.0000 C   0  0  0  0  0  0  0  0  0  0  0  0
    2.5242   -4.8694    0.0000 C   0  0  0  0  0  0  0  0  0  0  0  0
    1.3515   -3.9342    0.0000 C   0  0  0  0  0  0  0  0  0  0  0  0
    1.6852   -2.4718    0.0000 S   0  0  0  0  0  0  0  0  0  0  0  0
    0.7500   -1.2990    0.0000 C   0  0  0  0  0  0  0  0  0  0  0  0
    1.5000    0.0000    0.0000 C   0  0  0  0  0  0  0  0  0  0  0  0
    0.7500    1.2990    0.0000 C   0  0  0  0  0  0  0  0  0  0  0  0
   -0.7500    1.2990    0.0000 C   0  0  0  0  0  0  0  0  0  0  0  0
   -1.5000    0.0000    0.0000 C   0  0  0  0  0  0  0  0  0  0  0  0
   -0.7500   -1.2990    0.0000 C   0  0  0  0  0  0  0  0  0  0  0  0
   -1.6852   -2.4718    0.0000 N   0  0  0  0  0  0  0  0  0  0  0  0
   -3.1476   -2.1380    0.0000 C   0  0  0  0  0  0  0  0  0  0  0  0
   -3.5898   -0.7046    0.0000 C   0  0  0  0  0  0  0  0  0  0  0  0
   -5.0522   -0.3709    0.0000 N   0  0  0  0  0  0  0  0  0  0  0  0
   -5.4943    1.0625    0.0000 C   0  0  0  0  0  0  0  0  0  0  0  0
   -6.0724   -1.4704    0.0000 C   0  0  0  0  0  0  0  0  0  0  0  0
   -1.3515   -3.9342    0.0000 C   0  0  0  0  0  0  0  0  0  0  0  0
   -2.5242   -4.8694    0.0000 O   0  0  0  0  0  0  0  0  0  0  0  0
    0.0000   -4.5850    0.0000 C   0  0  0  0  0  0  0  0  0  0  0  0
    0.0000   -6.0850    0.0000 O   0  0  0  0  0  0  0  0  0  0  0  0
   -1.2990   -6.8350    0.0000 C   0  0  0  0  0  0  0  0  0  0  0  0
   -1.2990   -8.3350    0.0000 C   0  0  0  0  0  0  0  0  0  0  0  0
   -2.5981   -6.0850    0.0000 O   0  0  0  0  0  0  0  0  0  0  0  0
    3.9205   -4.3214    0.0000 C   0  0  0  0  0  0  0  0  0  0  0  0
    5.0933   -5.2566    0.0000 C   0  0  0  0  0  0  0  0  0  0  0  0
  1  2  1  0
  2  3  1  0
  3  4  2  0
  4  5  1  0
  5  6  2  0
  6  7  1  0
  7  8  1  0
  8  9  1  0
  9 10  2  0
 10 11  1  0
 11 12  2  0
 12 13  1  0
 13 14  2  0
 14 15  1  0
 15 16  1  0
 16 17  1  0
 17 18  1  0
 18 19  1  0
 18 20  1  0
 15 21  1  0
 21 22  2  0
 21 23  1  0
 23 24  1  0
 24 25  1  0
 25 26  1  0
 25 27  2  0
  6 28  1  0
 28 29  2  0
 29  3  1  0
 23  7  1  0
 14  9  1  0
M  END
>  <assay_description>  (175) 
Inhibition of human BSEP expressed in baculovirus transfected fall armyworm Sf21 cell membranes vesicles assessed as reduction in ATP-dependent [3H]-taurocholate transport into vesicles incubated for 5 mins by Topcount based rapid filtration method

>  <molecule_pref_name>  (175) 
None

>  <canonical_smiles>  (175) 
COc1ccc(C2Sc3ccccc3N(CCN(C)C)C(=O)C2OC(C)=O)cc1

>  <pchembl_value>  (175) 
4.09

>  <standard_type>  (175) 
IC50

>  <standard_relation>  (175) 
=

>  <standard_value>  (175) 
82020.0

>  <standard_units>  (175) 
nM

>  <target_pref_name>  (175) 
Bile salt export pump

>  <target_organism>  (175) 
Homo sapiens

$$$$
CHEMBL650
     RDKit          2D

 27 30  0  0  0  0  0  0  0  0999 V2000
   -3.0000   -2.5981    0.0000 C   0  0  0  0  0  0  0  0  0  0  0  0
   -1.5000   -2.5981    0.0000 C   0  0  0  0  0  0  0  0  0  0  0  0
   -0.7500   -3.8971    0.0000 C   0  0  0  0  0  0  0  0  0  0  0  0
    0.7500   -3.8971    0.0000 C   0  0  0  0  0  0  0  0  0  0  0  0
    1.5000   -5.1962    0.0000 C   0  0  0  0  0  0  0  0  0  0  0  0
    1.0365   -6.6227    0.0000 C   0  0  0  0  0  0  0  0  0  0  0  0
    2.2500   -7.5044    0.0000 C   0  0  0  0  0  0  0  0  0  0  0  0
    3.4635   -6.6227    0.0000 C   0  0  0  0  0  0  0  0  0  0  0  0
    4.8980   -6.1842    0.0000 O   0  0  0  0  0  0  0  0  0  0  0  0
    4.2135   -7.9218    0.0000 C   0  0  0  0  0  0  0  0  0  0  0  0
    5.7135   -7.9218    0.0000 O   0  0  0  0  0  0  0  0  0  0  0  0
    3.4635   -9.2208    0.0000 C   0  0  0  0  0  0  0  0  0  0  0  0
    4.2135  -10.5199    0.0000 O   0  0  0  0  0  0  0  0  0  0  0  0
    3.0000   -5.1962    0.0000 C   0  0  0  0  0  0  0  0  0  0  0  0
    4.4998   -5.1699    0.0000 C   0  0  0  0  0  0  0  0  0  0  0  0
    3.7500   -3.8971    0.0000 C   0  0  0  0  0  0  0  0  0  0  0  0
    3.0000   -2.5981    0.0000 C   0  0  0  0  0  0  0  0  0  0  0  0
    3.7500   -1.2990    0.0000 O   0  0  0  0  0  0  0  0  0  0  0  0
    1.5000   -2.5981    0.0000 C   0  0  0  0  0  0  0  0  0  0  0  0
    0.7500   -1.2990    0.0000 C   0  0  0  0  0  0  0  0  0  0  0  0
    2.2500   -1.2990    0.0000 C   0  0  0  0  0  0  0  0  0  0  0  0
    1.5000    0.0000    0.0000 C   0  0  0  0  0  0  0  0  0  0  0  0
    0.7500    1.2990    0.0000 C   0  0  0  0  0  0  0  0  0  0  0  0
   -0.7500    1.2990    0.0000 C   0  0  0  0  0  0  0  0  0  0  0  0
   -1.5000    2.5981    0.0000 O   0  0  0  0  0  0  0  0  0  0  0  0
   -1.5000    0.0000    0.0000 C   0  0  0  0  0  0  0  0  0  0  0  0
   -0.7500   -1.2990    0.0000 C   0  0  0  0  0  0  0  0  0  0  0  0
  2  1  1  6
  2  3  1  0
  4  3  1  6
  4  5  1  0
  5  6  1  1
  6  7  1  0
  7  8  1  0
  8  9  1  6
  8 10  1  0
 10 11  2  0
 10 12  1  0
 12 13  1  0
  8 14  1  0
 14 15  1  1
 14 16  1  0
 16 17  1  0
 17 18  1  1
 19 17  1  1
 19 20  1  0
 20 21  1  1
 20 22  1  0
 22 23  2  0
 23 24  1  0
 24 25  2  0
 24 26  1  0
 26 27  2  0
 27  2  1  0
 19  4  1  0
 27 20  1  0
 14  5  1  0
M  END
>  <assay_description>  (176) 
Inhibition of human BSEP expressed in baculovirus transfected fall armyworm Sf21 cell membranes vesicles assessed as reduction in ATP-dependent [3H]-taurocholate transport into vesicles incubated for 5 mins by Topcount based rapid filtration method

>  <molecule_pref_name>  (176) 
METHYLPREDNISOLONE

>  <canonical_smiles>  (176) 
C[C@H]1C[C@H]2[C@@H]3CC[C@](O)(C(=O)CO)[C@@]3(C)C[C@H](O)[C@@H]2[C@@]2(C)C=CC(=O)C=C12

>  <pchembl_value>  (176) 
4.48

>  <standard_type>  (176) 
IC50

>  <standard_relation>  (176) 
=

>  <standard_value>  (176) 
33030.0

>  <standard_units>  (176) 
nM

>  <target_pref_name>  (176) 
Bile salt export pump

>  <target_organism>  (176) 
Homo sapiens

$$$$
CHEMBL4070705
     RDKit          2D

 20 22  0  0  0  0  0  0  0  0999 V2000
    3.7500   -1.2990    0.0000 C   0  0  0  0  0  0  0  0  0  0  0  0
    3.0000    0.0000    0.0000 O   0  0  0  0  0  0  0  0  0  0  0  0
    1.5000    0.0000    0.0000 C   0  0  0  0  0  0  0  0  0  0  0  0
    0.7500   -1.2990    0.0000 C   0  0  0  0  0  0  0  0  0  0  0  0
   -0.7500   -1.2990    0.0000 C   0  0  0  0  0  0  0  0  0  0  0  0
   -1.5000    0.0000    0.0000 C   0  0  0  0  0  0  0  0  0  0  0  0
   -3.0000    0.0000    0.0000 N   0  0  0  0  0  0  0  0  0  0  0  0
   -3.7500    1.2990    0.0000 C   0  0  0  0  0  0  0  0  0  0  0  0
   -5.2418    1.4558    0.0000 C   0  0  0  0  0  0  0  0  0  0  0  0
   -5.5537    2.9231    0.0000 C   0  0  0  0  0  0  0  0  0  0  0  0
   -4.2546    3.6731    0.0000 N   0  0  0  0  0  0  0  0  0  0  0  0
   -4.0978    5.1648    0.0000 C   0  0  0  0  0  0  0  0  0  0  0  0
   -2.7275    5.7749    0.0000 C   0  0  0  0  0  0  0  0  0  0  0  0
   -2.5707    7.2667    0.0000 C   0  0  0  0  0  0  0  0  0  0  0  0
   -3.7842    8.1484    0.0000 C   0  0  0  0  0  0  0  0  0  0  0  0
   -5.1546    7.5383    0.0000 C   0  0  0  0  0  0  0  0  0  0  0  0
   -5.3113    6.0465    0.0000 C   0  0  0  0  0  0  0  0  0  0  0  0
   -3.1399    2.6694    0.0000 N   0  0  0  0  0  0  0  0  0  0  0  0
   -0.7500    1.2990    0.0000 C   0  0  0  0  0  0  0  0  0  0  0  0
    0.7500    1.2990    0.0000 C   0  0  0  0  0  0  0  0  0  0  0  0
  1  2  1  0
  2  3  1  0
  3  4  2  0
  4  5  1  0
  5  6  2  0
  6  7  1  0
  7  8  1  0
  8  9  1  0
  9 10  2  0
 10 11  1  0
 11 12  1  0
 12 13  2  0
 13 14  1  0
 14 15  2  0
 15 16  1  0
 16 17  2  0
 11 18  1  0
  6 19  1  0
 19 20  2  0
 20  3  1  0
 18  8  2  0
 17 12  1  0
M  END
>  <assay_description>  (177) 
Inhibition of human BSEP expressed in baculovirus transfected fall armyworm Sf21 cell membranes vesicles assessed as reduction in ATP-dependent [3H]-taurocholate transport into vesicles incubated for 5 mins by Topcount based rapid filtration method

>  <molecule_pref_name>  (177) 
None

>  <canonical_smiles>  (177) 
COc1ccc(Nc2ccn(-c3ccccc3)n2)cc1

>  <pchembl_value>  (177) 
4.64

>  <standard_type>  (177) 
IC50

>  <standard_relation>  (177) 
=

>  <standard_value>  (177) 
23030.0

>  <standard_units>  (177) 
nM

>  <target_pref_name>  (177) 
Bile salt export pump

>  <target_organism>  (177) 
Homo sapiens

$$$$
CHEMBL4070422
     RDKit          2D

 30 32  0  0  0  0  0  0  0  0999 V2000
    5.2500   -1.2990    0.0000 C   0  0  0  0  0  0  0  0  0  0  0  0
    3.7500   -1.2990    0.0000 C   0  0  0  0  0  0  0  0  0  0  0  0
    3.0000   -2.5981    0.0000 O   0  0  0  0  0  0  0  0  0  0  0  0
    3.0000    0.0000    0.0000 N   0  0  0  0  0  0  0  0  0  0  0  0
    1.5000    0.0000    0.0000 C   0  0  0  0  0  0  0  0  0  0  0  0
    0.7500   -1.2990    0.0000 C   0  0  0  0  0  0  0  0  0  0  0  0
   -0.7500   -1.2990    0.0000 C   0  0  0  0  0  0  0  0  0  0  0  0
   -1.5000    0.0000    0.0000 C   0  0  0  0  0  0  0  0  0  0  0  0
   -0.7500    1.2990    0.0000 C   0  0  0  0  0  0  0  0  0  0  0  0
    0.7500    1.2990    0.0000 C   0  0  0  0  0  0  0  0  0  0  0  0
    1.5000    2.5981    0.0000 O   0  0  0  0  0  0  0  0  0  0  0  0
    0.7500    3.8971    0.0000 C   0  0  0  0  0  0  0  0  0  0  0  0
    1.5000    5.1962    0.0000 C   0  0  0  0  0  0  0  0  0  0  0  0
    3.0000    5.1962    0.0000 O   0  0  0  0  0  0  0  0  0  0  0  0
    0.7500    6.4952    0.0000 C   0  0  0  0  0  0  0  0  0  0  0  0
    1.5000    7.7942    0.0000 N   0  0  0  0  0  0  0  0  0  0  0  0
    0.7500    9.0933    0.0000 C   0  0  0  0  0  0  0  0  0  0  0  0
    1.5000   10.3923    0.0000 C   0  0  0  0  0  0  0  0  0  0  0  0
    0.7500   11.6913    0.0000 C   0  0  0  0  0  0  0  0  0  0  0  0
   -0.7500   11.6913    0.0000 N   0  0  0  0  0  0  0  0  0  0  0  0
   -1.5000   12.9904    0.0000 C   0  0  0  0  0  0  0  0  0  0  0  0
   -0.7500   14.2894    0.0000 C   0  0  0  0  0  0  0  0  0  0  0  0
    0.7500   14.2894    0.0000 C   0  0  0  0  0  0  0  0  0  0  0  0
    1.5000   15.5885    0.0000 C   0  0  0  0  0  0  0  0  0  0  0  0
    0.7500   16.8875    0.0000 C   0  0  0  0  0  0  0  0  0  0  0  0
    1.5000   18.1865    0.0000 Cl  0  0  0  0  0  0  0  0  0  0  0  0
   -0.7500   16.8875    0.0000 C   0  0  0  0  0  0  0  0  0  0  0  0
   -1.5000   15.5885    0.0000 C   0  0  0  0  0  0  0  0  0  0  0  0
   -1.5000   10.3923    0.0000 C   0  0  0  0  0  0  0  0  0  0  0  0
   -0.7500    9.0933    0.0000 C   0  0  0  0  0  0  0  0  0  0  0  0
  1  2  1  0
  2  3  2  0
  2  4  1  0
  4  5  1  0
  5  6  2  0
  6  7  1  0
  7  8  2  0
  8  9  1  0
  9 10  2  0
 10 11  1  0
 11 12  1  0
 12 13  1  0
 13 14  1  6
 13 15  1  0
 15 16  1  0
 16 17  1  0
 17 18  1  0
 18 19  1  0
 19 20  1  0
 20 21  1  0
 21 22  1  0
 22 23  2  0
 23 24  1  0
 24 25  2  0
 25 26  1  0
 25 27  1  0
 27 28  2  0
 20 29  1  0
 29 30  1  0
 10  5  1  0
 30 17  1  0
 28 22  1  0
M  END
>  <assay_description>  (178) 
Inhibition of human BSEP expressed in baculovirus transfected fall armyworm Sf21 cell membranes vesicles assessed as reduction in ATP-dependent [3H]-taurocholate transport into vesicles incubated for 5 mins by Topcount based rapid filtration method

>  <molecule_pref_name>  (178) 
None

>  <canonical_smiles>  (178) 
CC(=O)Nc1ccccc1OC[C@@H](O)CNC1CCN(Cc2ccc(Cl)cc2)CC1

>  <pchembl_value>  (178) 
4.25

>  <standard_type>  (178) 
IC50

>  <standard_relation>  (178) 
=

>  <standard_value>  (178) 
55570.0

>  <standard_units>  (178) 
nM

>  <target_pref_name>  (178) 
Bile salt export pump

>  <target_organism>  (178) 
Homo sapiens

$$$$
CHEMBL4099090
     RDKit          2D

 25 27  0  0  0  0  0  0  0  0999 V2000
    1.2990   -5.8573    0.0000 O   0  0  0  0  0  0  0  0  0  0  0  0
   -0.0000   -5.1073    0.0000 C   0  0  0  0  0  0  0  0  0  0  0  0
   -1.2990   -5.8573    0.0000 O   0  0  0  0  0  0  0  0  0  0  0  0
   -0.0000   -3.6073    0.0000 C   0  0  0  0  0  0  0  0  0  0  0  0
    1.2135   -2.7256    0.0000 C   0  0  0  0  0  0  0  0  0  0  0  0
    0.7500   -1.2990    0.0000 C   0  0  0  0  0  0  0  0  0  0  0  0
    1.5000    0.0000    0.0000 C   0  0  0  0  0  0  0  0  0  0  0  0
    0.7500    1.2990    0.0000 C   0  0  0  0  0  0  0  0  0  0  0  0
    1.5000    2.5981    0.0000 O   0  0  0  0  0  0  0  0  0  0  0  0
   -0.7500    1.2990    0.0000 C   0  0  0  0  0  0  0  0  0  0  0  0
   -1.5000    0.0000    0.0000 C   0  0  0  0  0  0  0  0  0  0  0  0
   -0.7500   -1.2990    0.0000 C   0  0  0  0  0  0  0  0  0  0  0  0
   -1.2135   -2.7256    0.0000 N   0  0  0  0  0  0  0  0  0  0  0  0
   -2.6401   -3.1891    0.0000 C   0  0  0  0  0  0  0  0  0  0  0  0
   -3.7548   -2.1855    0.0000 C   0  0  0  0  0  0  0  0  0  0  0  0
   -3.4430   -0.7182    0.0000 C   0  0  0  0  0  0  0  0  0  0  0  0
   -4.5577    0.2855    0.0000 C   0  0  0  0  0  0  0  0  0  0  0  0
   -5.9843   -0.1781    0.0000 C   0  0  0  0  0  0  0  0  0  0  0  0
   -7.0990    0.8256    0.0000 Cl  0  0  0  0  0  0  0  0  0  0  0  0
   -6.2961   -1.6453    0.0000 C   0  0  0  0  0  0  0  0  0  0  0  0
   -7.7227   -2.1088    0.0000 C   0  0  0  0  0  0  0  0  0  0  0  0
   -9.1493   -2.5723    0.0000 F   0  0  0  0  0  0  0  0  0  0  0  0
   -7.2592   -3.5354    0.0000 F   0  0  0  0  0  0  0  0  0  0  0  0
   -8.1862   -0.6822    0.0000 F   0  0  0  0  0  0  0  0  0  0  0  0
   -5.1814   -2.6490    0.0000 C   0  0  0  0  0  0  0  0  0  0  0  0
  1  2  2  0
  2  3  1  0
  2  4  1  0
  4  5  2  0
  5  6  1  0
  6  7  2  0
  7  8  1  0
  8  9  1  0
  8 10  2  0
 10 11  1  0
 11 12  2  0
 12 13  1  0
 13 14  1  0
 14 15  1  0
 15 16  2  0
 16 17  1  0
 17 18  2  0
 18 19  1  0
 18 20  1  0
 20 21  1  0
 21 22  1  0
 21 23  1  0
 21 24  1  0
 20 25  2  0
 13  4  1  0
 25 15  1  0
 12  6  1  0
M  END
>  <assay_description>  (179) 
Inhibition of human BSEP expressed in baculovirus transfected fall armyworm Sf21 cell membranes vesicles assessed as reduction in ATP-dependent [3H]-taurocholate transport into vesicles incubated for 5 mins by Topcount based rapid filtration method

>  <molecule_pref_name>  (179) 
None

>  <canonical_smiles>  (179) 
O=C(O)c1cc2cc(O)ccc2n1Cc1ccc(Cl)c(C(F)(F)F)c1

>  <pchembl_value>  (179) 
4.73

>  <standard_type>  (179) 
IC50

>  <standard_relation>  (179) 
=

>  <standard_value>  (179) 
18490.0

>  <standard_units>  (179) 
nM

>  <target_pref_name>  (179) 
Bile salt export pump

>  <target_organism>  (179) 
Homo sapiens

$$$$
CHEMBL4081054
     RDKit          2D

 31 33  0  0  0  0  0  0  0  0999 V2000
    5.2500   -1.2990    0.0000 C   0  0  0  0  0  0  0  0  0  0  0  0
    3.7500   -1.2990    0.0000 C   0  0  0  0  0  0  0  0  0  0  0  0
    3.0000   -2.5981    0.0000 O   0  0  0  0  0  0  0  0  0  0  0  0
    3.0000    0.0000    0.0000 N   0  0  0  0  0  0  0  0  0  0  0  0
    1.5000    0.0000    0.0000 C   0  0  0  0  0  0  0  0  0  0  0  0
    0.7500   -1.2990    0.0000 C   0  0  0  0  0  0  0  0  0  0  0  0
   -0.7500   -1.2990    0.0000 C   0  0  0  0  0  0  0  0  0  0  0  0
   -1.5000    0.0000    0.0000 C   0  0  0  0  0  0  0  0  0  0  0  0
   -0.7500    1.2990    0.0000 C   0  0  0  0  0  0  0  0  0  0  0  0
    0.7500    1.2990    0.0000 C   0  0  0  0  0  0  0  0  0  0  0  0
    1.5000    2.5981    0.0000 O   0  0  0  0  0  0  0  0  0  0  0  0
    0.7500    3.8971    0.0000 C   0  0  0  0  0  0  0  0  0  0  0  0
    1.5000    5.1962    0.0000 C   0  0  0  0  0  0  0  0  0  0  0  0
    2.7990    4.4462    0.0000 C   0  0  0  0  0  0  0  0  0  0  0  0
    2.2500    6.4952    0.0000 O   0  0  0  0  0  0  0  0  0  0  0  0
    0.2010    5.9462    0.0000 C   0  0  0  0  0  0  0  0  0  0  0  0
    0.2010    7.4462    0.0000 N   0  0  0  0  0  0  0  0  0  0  0  0
   -1.0981    8.1962    0.0000 C   0  0  0  0  0  0  0  0  0  0  0  0
   -1.0981    9.6962    0.0000 C   0  0  0  0  0  0  0  0  0  0  0  0
   -2.3971   10.4462    0.0000 C   0  0  0  0  0  0  0  0  0  0  0  0
   -3.6962    9.6962    0.0000 N   0  0  0  0  0  0  0  0  0  0  0  0
   -4.9952   10.4462    0.0000 C   0  0  0  0  0  0  0  0  0  0  0  0
   -4.9952   11.9462    0.0000 C   0  0  0  0  0  0  0  0  0  0  0  0
   -3.6962   12.6962    0.0000 C   0  0  0  0  0  0  0  0  0  0  0  0
   -3.6962   14.1962    0.0000 C   0  0  0  0  0  0  0  0  0  0  0  0
   -4.9952   14.9462    0.0000 C   0  0  0  0  0  0  0  0  0  0  0  0
   -4.9952   16.4462    0.0000 Cl  0  0  0  0  0  0  0  0  0  0  0  0
   -6.2942   14.1962    0.0000 C   0  0  0  0  0  0  0  0  0  0  0  0
   -6.2942   12.6962    0.0000 C   0  0  0  0  0  0  0  0  0  0  0  0
   -3.6962    8.1962    0.0000 C   0  0  0  0  0  0  0  0  0  0  0  0
   -2.3971    7.4462    0.0000 C   0  0  0  0  0  0  0  0  0  0  0  0
  1  2  1  0
  2  3  2  0
  2  4  1  0
  4  5  1  0
  5  6  2  0
  6  7  1  0
  7  8  2  0
  8  9  1  0
  9 10  2  0
 10 11  1  0
 11 12  1  0
 12 13  1  0
 13 14  1  1
 13 15  1  0
 13 16  1  0
 16 17  1  0
 17 18  1  0
 18 19  1  0
 19 20  1  0
 20 21  1  0
 21 22  1  0
 22 23  1  0
 23 24  2  0
 24 25  1  0
 25 26  2  0
 26 27  1  0
 26 28  1  0
 28 29  2  0
 21 30  1  0
 30 31  1  0
 10  5  1  0
 31 18  1  0
 29 23  1  0
M  END
>  <assay_description>  (180) 
Inhibition of human BSEP expressed in baculovirus transfected fall armyworm Sf21 cell membranes vesicles assessed as reduction in ATP-dependent [3H]-taurocholate transport into vesicles incubated for 5 mins by Topcount based rapid filtration method

>  <molecule_pref_name>  (180) 
None

>  <canonical_smiles>  (180) 
CC(=O)Nc1ccccc1OC[C@@](C)(O)CNC1CCN(Cc2ccc(Cl)cc2)CC1

>  <pchembl_value>  (180) 
4.14

>  <standard_type>  (180) 
IC50

>  <standard_relation>  (180) 
=

>  <standard_value>  (180) 
71540.0

>  <standard_units>  (180) 
nM

>  <target_pref_name>  (180) 
Bile salt export pump

>  <target_organism>  (180) 
Homo sapiens

$$$$
CHEMBL4088943
     RDKit          2D

 29 32  0  0  0  0  0  0  0  0999 V2000
    3.0000   -7.7942    0.0000 C   0  0  0  0  0  0  0  0  0  0  0  0
    1.5000   -7.7942    0.0000 C   0  0  0  0  0  0  0  0  0  0  0  0
    0.7500   -9.0933    0.0000 C   0  0  0  0  0  0  0  0  0  0  0  0
   -0.7500   -9.0933    0.0000 C   0  0  0  0  0  0  0  0  0  0  0  0
   -1.5000   -7.7942    0.0000 C   0  0  0  0  0  0  0  0  0  0  0  0
   -3.0000   -7.7942    0.0000 C   0  0  0  0  0  0  0  0  0  0  0  0
   -3.7500   -6.4952    0.0000 C   0  0  0  0  0  0  0  0  0  0  0  0
   -5.2500   -6.4952    0.0000 C   0  0  0  0  0  0  0  0  0  0  0  0
   -6.0000   -5.1962    0.0000 N   0  0  0  0  0  0  0  0  0  0  0  0
   -7.5000   -5.1962    0.0000 C   0  0  0  0  0  0  0  0  0  0  0  0
   -8.2500   -3.8971    0.0000 C   0  0  0  0  0  0  0  0  0  0  0  0
   -8.2500   -6.4952    0.0000 C   0  0  0  0  0  0  0  0  0  0  0  0
   -9.7500   -6.4952    0.0000 O   0  0  0  0  0  0  0  0  0  0  0  0
   -0.7500   -6.4952    0.0000 C   0  0  0  0  0  0  0  0  0  0  0  0
    0.7500   -6.4952    0.0000 C   0  0  0  0  0  0  0  0  0  0  0  0
    1.5000   -5.1962    0.0000 C   0  0  0  0  0  0  0  0  0  0  0  0
    3.0000   -5.1962    0.0000 O   0  0  0  0  0  0  0  0  0  0  0  0
    0.7500   -3.8971    0.0000 N   0  0  0  0  0  0  0  0  0  0  0  0
    1.5000   -2.5981    0.0000 C   0  0  0  0  0  0  0  0  0  0  0  0
    0.7500   -1.2990    0.0000 C   0  0  0  0  0  0  0  0  0  0  0  0
    1.5000    0.0000    0.0000 C   0  0  0  0  0  0  0  0  0  0  0  0
    0.7500    1.2990    0.0000 C   0  0  0  0  0  0  0  0  0  0  0  0
   -0.7500    1.2990    0.0000 C   0  0  0  0  0  0  0  0  0  0  0  0
   -1.5000    0.0000    0.0000 C   0  0  0  0  0  0  0  0  0  0  0  0
    1.7010   -0.7500    0.0000 C   0  0  0  0  0  0  0  0  0  0  0  0
    3.0000   -0.0000    0.0000 C   0  0  0  0  0  0  0  0  0  0  0  0
    2.2500    1.2990    0.0000 C   0  0  0  0  0  0  0  0  0  0  0  0
    2.2500   -1.2990    0.0000 C   0  0  0  0  0  0  0  0  0  0  0  0
   -0.7500   -1.2990    0.0000 C   0  0  0  0  0  0  0  0  0  0  0  0
  1  2  1  0
  2  3  2  0
  3  4  1  0
  4  5  2  0
  5  6  1  0
  6  7  1  0
  7  8  1  0
  8  9  1  0
  9 10  1  0
 10 11  1  1
 10 12  1  0
 12 13  1  0
  5 14  1  0
 14 15  2  0
 15 16  1  0
 16 17  2  0
 16 18  1  0
 18 19  1  0
 19 20  1  0
 20 21  1  0
 21 22  1  0
 22 23  1  0
 23 24  1  0
 24 25  1  0
 25 26  1  0
 26 27  1  0
 26 28  1  0
 24 29  1  0
 15  2  1  0
 28 20  1  0
 29 20  1  0
 27 22  1  0
M  END
>  <assay_description>  (181) 
Inhibition of human BSEP expressed in baculovirus transfected fall armyworm Sf21 cell membranes vesicles assessed as reduction in ATP-dependent [3H]-taurocholate transport into vesicles incubated for 5 mins by Topcount based rapid filtration method

>  <molecule_pref_name>  (181) 
None

>  <canonical_smiles>  (181) 
Cc1ccc(CCCN[C@H](C)CO)cc1C(=O)NCC12CC3CC(CC(C3)C1)C2

>  <pchembl_value>  (181) 
4.18

>  <standard_type>  (181) 
IC50

>  <standard_relation>  (181) 
=

>  <standard_value>  (181) 
65560.0

>  <standard_units>  (181) 
nM

>  <target_pref_name>  (181) 
Bile salt export pump

>  <target_organism>  (181) 
Homo sapiens

$$$$
CHEMBL4091827
     RDKit          2D

 20 22  0  0  0  0  0  0  0  0999 V2000
   -2.9630    4.9155    0.0000 O   0  0  0  0  0  0  0  0  0  0  0  0
   -1.4958    4.6036    0.0000 C   0  0  0  0  0  0  0  0  0  0  0  0
   -0.4921    5.7184    0.0000 O   0  0  0  0  0  0  0  0  0  0  0  0
   -1.0323    3.1771    0.0000 C   0  0  0  0  0  0  0  0  0  0  0  0
    0.3943    2.7135    0.0000 C   0  0  0  0  0  0  0  0  0  0  0  0
    0.3943    1.2135    0.0000 C   0  0  0  0  0  0  0  0  0  0  0  0
    1.2760    0.0000    0.0000 S   0  0  0  0  0  0  0  0  0  0  0  0
    0.3943   -1.2135    0.0000 C   0  0  0  0  0  0  0  0  0  0  0  0
   -1.0323   -0.7500    0.0000 C   0  0  0  0  0  0  0  0  0  0  0  0
   -1.0323    0.7500    0.0000 C   0  0  0  0  0  0  0  0  0  0  0  0
   -1.9140    1.9635    0.0000 N   0  0  0  0  0  0  0  0  0  0  0  0
   -3.4140    1.9635    0.0000 C   0  0  0  0  0  0  0  0  0  0  0  0
   -4.1640    0.6645    0.0000 C   0  0  0  0  0  0  0  0  0  0  0  0
   -5.6640    0.6645    0.0000 C   0  0  0  0  0  0  0  0  0  0  0  0
   -6.4140   -0.6346    0.0000 C   0  0  0  0  0  0  0  0  0  0  0  0
   -5.6640   -1.9336    0.0000 C   0  0  0  0  0  0  0  0  0  0  0  0
   -6.4140   -3.2326    0.0000 Cl  0  0  0  0  0  0  0  0  0  0  0  0
   -4.1640   -1.9336    0.0000 C   0  0  0  0  0  0  0  0  0  0  0  0
   -3.4140   -3.2326    0.0000 Cl  0  0  0  0  0  0  0  0  0  0  0  0
   -3.4140   -0.6346    0.0000 C   0  0  0  0  0  0  0  0  0  0  0  0
  1  2  2  0
  2  3  1  0
  2  4  1  0
  4  5  2  0
  5  6  1  0
  6  7  1  0
  7  8  1  0
  8  9  2  0
  9 10  1  0
 10 11  1  0
 11 12  1  0
 12 13  1  0
 13 14  2  0
 14 15  1  0
 15 16  2  0
 16 17  1  0
 16 18  1  0
 18 19  1  0
 18 20  2  0
 11  4  1  0
 20 13  1  0
 10  6  2  0
M  END
>  <assay_description>  (182) 
Inhibition of human BSEP expressed in baculovirus transfected fall armyworm Sf21 cell membranes vesicles assessed as reduction in ATP-dependent [3H]-taurocholate transport into vesicles incubated for 5 mins by Topcount based rapid filtration method

>  <molecule_pref_name>  (182) 
None

>  <canonical_smiles>  (182) 
O=C(O)c1cc2sccc2n1Cc1ccc(Cl)c(Cl)c1

>  <pchembl_value>  (182) 
4.86

>  <standard_type>  (182) 
IC50

>  <standard_relation>  (182) 
=

>  <standard_value>  (182) 
13720.0

>  <standard_units>  (182) 
nM

>  <target_pref_name>  (182) 
Bile salt export pump

>  <target_organism>  (182) 
Homo sapiens

$$$$
CHEMBL234952
     RDKit          2D

 29 32  0  0  0  0  0  0  0  0999 V2000
   -0.7500   -6.4952    0.0000 O   0  0  0  0  0  0  0  0  0  0  0  0
    0.7500   -6.4952    0.0000 C   0  0  0  0  0  0  0  0  0  0  0  0
    1.5000   -5.1962    0.0000 N   0  0  0  0  0  0  0  0  0  0  0  0
    0.7500   -3.8971    0.0000 C   0  0  0  0  0  0  0  0  0  0  0  0
    1.5000   -2.5981    0.0000 C   0  0  0  0  0  0  0  0  0  0  0  0
    0.7500   -1.2990    0.0000 C   0  0  0  0  0  0  0  0  0  0  0  0
    1.5000    0.0000    0.0000 C   0  0  0  0  0  0  0  0  0  0  0  0
    0.7500    1.2990    0.0000 C   0  0  0  0  0  0  0  0  0  0  0  0
   -0.7500    1.2990    0.0000 C   0  0  0  0  0  0  0  0  0  0  0  0
   -1.5000    0.0000    0.0000 C   0  0  0  0  0  0  0  0  0  0  0  0
   -0.7500   -1.2990    0.0000 C   0  0  0  0  0  0  0  0  0  0  0  0
   -1.5000   -2.5981    0.0000 N   0  0  0  0  0  0  0  0  0  0  0  0
   -3.0000   -2.5981    0.0000 C   0  0  0  0  0  0  0  0  0  0  0  0
   -3.7500   -1.2990    0.0000 C   0  0  0  0  0  0  0  0  0  0  0  0
   -3.0000    0.0000    0.0000 O   0  0  0  0  0  0  0  0  0  0  0  0
   -5.2500   -1.2990    0.0000 C   0  0  0  0  0  0  0  0  0  0  0  0
   -6.0000    0.0000    0.0000 O   0  0  0  0  0  0  0  0  0  0  0  0
   -0.7500   -3.8971    0.0000 C   0  0  0  0  0  0  0  0  0  0  0  0
   -1.5000   -5.1962    0.0000 O   0  0  0  0  0  0  0  0  0  0  0  0
    1.5000   -7.7942    0.0000 C   0  0  0  0  0  0  0  0  0  0  0  0
    0.8899   -9.1645    0.0000 C   0  0  0  0  0  0  0  0  0  0  0  0
    2.0046  -10.1682    0.0000 C   0  0  0  0  0  0  0  0  0  0  0  0
    2.0046  -11.6682    0.0000 C   0  0  0  0  0  0  0  0  0  0  0  0
    3.3037  -12.4182    0.0000 C   0  0  0  0  0  0  0  0  0  0  0  0
    3.3037  -13.9182    0.0000 Cl  0  0  0  0  0  0  0  0  0  0  0  0
    4.6027  -11.6682    0.0000 C   0  0  0  0  0  0  0  0  0  0  0  0
    4.6027  -10.1682    0.0000 C   0  0  0  0  0  0  0  0  0  0  0  0
    3.3037   -9.4182    0.0000 C   0  0  0  0  0  0  0  0  0  0  0  0
    2.9918   -7.9510    0.0000 N   0  0  0  0  0  0  0  0  0  0  0  0
  1  2  2  0
  2  3  1  0
  3  4  1  0
  4  5  1  0
  5  6  1  0
  6  7  2  0
  7  8  1  0
  8  9  2  0
  9 10  1  0
 10 11  2  0
 11 12  1  0
 12 13  1  0
 13 14  1  0
 14 15  1  6
 14 16  1  0
 16 17  1  0
 12 18  1  0
 18 19  2  0
  2 20  1  0
 20 21  2  0
 21 22  1  0
 22 23  2  0
 23 24  1  0
 24 25  1  0
 24 26  2  0
 26 27  1  0
 27 28  2  0
 28 29  1  0
 18  4  1  0
 29 20  1  0
 11  6  1  0
 28 22  1  0
M  END
>  <assay_description>  (183) 
Inhibition of human BSEP expressed in baculovirus transfected fall armyworm Sf21 cell membranes vesicles assessed as reduction in ATP-dependent [3H]-taurocholate transport into vesicles incubated for 5 mins by Topcount based rapid filtration method

>  <molecule_pref_name>  (183) 
None

>  <canonical_smiles>  (183) 
O=C(NC1Cc2ccccc2N(C[C@@H](O)CO)C1=O)c1cc2cc(Cl)ccc2[nH]1

>  <pchembl_value>  (183) 
4.72

>  <standard_type>  (183) 
IC50

>  <standard_relation>  (183) 
=

>  <standard_value>  (183) 
19090.0

>  <standard_units>  (183) 
nM

>  <target_pref_name>  (183) 
Bile salt export pump

>  <target_organism>  (183) 
Homo sapiens

$$$$
CHEMBL550637
     RDKit          2D

 32 37  0  0  0  0  0  0  0  0999 V2000
    3.0000   -7.7942    0.0000 C   0  0  0  0  0  0  0  0  0  0  0  0
    1.5000   -7.7942    0.0000 C   0  0  0  0  0  0  0  0  0  0  0  0
    0.7500   -9.0933    0.0000 C   0  0  0  0  0  0  0  0  0  0  0  0
   -0.7500   -9.0933    0.0000 C   0  0  0  0  0  0  0  0  0  0  0  0
   -1.5000   -7.7942    0.0000 C   0  0  0  0  0  0  0  0  0  0  0  0
   -3.0000   -7.7942    0.0000 C   0  0  0  0  0  0  0  0  0  0  0  0
   -3.7500   -9.0933    0.0000 O   0  0  0  0  0  0  0  0  0  0  0  0
   -3.7500   -6.4952    0.0000 N   0  0  0  0  0  0  0  0  0  0  0  0
   -3.0000   -5.1962    0.0000 C   0  0  0  0  0  0  0  0  0  0  0  0
   -3.7500   -3.8971    0.0000 C   0  0  0  0  0  0  0  0  0  0  0  0
   -4.5000   -2.5981    0.0000 C   0  0  0  0  0  0  0  0  0  0  0  0
   -6.0000   -2.5981    0.0000 N   0  0  0  0  0  0  0  0  0  0  0  0
   -6.7500   -3.8971    0.0000 C   0  0  0  0  0  0  0  0  0  0  0  0
   -6.0000   -5.1962    0.0000 C   0  0  0  0  0  0  0  0  0  0  0  0
   -5.2500   -6.4952    0.0000 C   0  0  0  0  0  0  0  0  0  0  0  0
   -4.5000   -5.1962    0.0000 O   0  0  0  0  0  0  0  0  0  0  0  0
   -0.7500   -6.4952    0.0000 C   0  0  0  0  0  0  0  0  0  0  0  0
    0.7500   -6.4952    0.0000 C   0  0  0  0  0  0  0  0  0  0  0  0
    1.5000   -5.1962    0.0000 N   0  0  0  0  0  0  0  0  0  0  0  0
    0.7500   -3.8971    0.0000 C   0  0  0  0  0  0  0  0  0  0  0  0
   -0.7500   -3.8971    0.0000 O   0  0  0  0  0  0  0  0  0  0  0  0
    1.5000   -2.5981    0.0000 C   0  0  0  0  0  0  0  0  0  0  0  0
    0.7500   -1.2990    0.0000 C   0  0  0  0  0  0  0  0  0  0  0  0
    1.5000    0.0000    0.0000 C   0  0  0  0  0  0  0  0  0  0  0  0
    0.7500    1.2990    0.0000 C   0  0  0  0  0  0  0  0  0  0  0  0
   -0.7500    1.2990    0.0000 C   0  0  0  0  0  0  0  0  0  0  0  0
   -1.5000    0.0000    0.0000 C   0  0  0  0  0  0  0  0  0  0  0  0
    1.7010   -0.7500    0.0000 C   0  0  0  0  0  0  0  0  0  0  0  0
    3.0000   -0.0000    0.0000 C   0  0  0  0  0  0  0  0  0  0  0  0
    2.2500    1.2990    0.0000 C   0  0  0  0  0  0  0  0  0  0  0  0
    2.2500   -1.2990    0.0000 C   0  0  0  0  0  0  0  0  0  0  0  0
   -0.7500   -1.2990    0.0000 C   0  0  0  0  0  0  0  0  0  0  0  0
  1  2  1  0
  2  3  2  0
  3  4  1  0
  4  5  2  0
  5  6  1  0
  6  7  2  0
  6  8  1  0
  8  9  1  0
  9 10  1  0
 10 11  1  0
 11 12  1  0
 12 13  1  0
 13 14  1  0
 14 15  1  0
 14 16  1  0
  5 17  1  0
 17 18  2  0
 18 19  1  0
 19 20  1  0
 20 21  2  0
 20 22  1  0
 22 23  1  0
 23 24  1  0
 24 25  1  0
 25 26  1  0
 26 27  1  0
 27 28  1  0
 28 29  1  0
 29 30  1  0
 29 31  1  0
 27 32  1  0
 18  2  1  0
 31 23  1  0
 15  8  1  0
 32 23  1  0
 16 10  1  0
 30 25  1  0
M  END
>  <assay_description>  (184) 
Inhibition of human BSEP expressed in baculovirus transfected fall armyworm Sf21 cell membranes vesicles assessed as reduction in ATP-dependent [3H]-taurocholate transport into vesicles incubated for 5 mins by Topcount based rapid filtration method

>  <molecule_pref_name>  (184) 
None

>  <canonical_smiles>  (184) 
Cc1ccc(C(=O)N2CC3CNCC(C2)O3)cc1NC(=O)CC12CC3CC(CC(C3)C1)C2

>  <pchembl_value>  (184) 
4.22

>  <standard_type>  (184) 
IC50

>  <standard_relation>  (184) 
=

>  <standard_value>  (184) 
59510.0

>  <standard_units>  (184) 
nM

>  <target_pref_name>  (184) 
Bile salt export pump

>  <target_organism>  (184) 
Homo sapiens

$$$$
CHEMBL387125
     RDKit          2D

 31 33  0  0  0  0  0  0  0  0999 V2000
    3.5260    3.8971    0.0000 C   0  0  0  0  0  0  0  0  0  0  0  0
    2.7760    2.5981    0.0000 O   0  0  0  0  0  0  0  0  0  0  0  0
    3.5260    1.2990    0.0000 N   0  0  0  0  0  0  0  0  0  0  0  0
    5.0260    1.2990    0.0000 C   0  0  0  0  0  0  0  0  0  0  0  0
    2.7760    0.0000    0.0000 C   0  0  0  0  0  0  0  0  0  0  0  0
    3.5260   -1.2990    0.0000 O   0  0  0  0  0  0  0  0  0  0  0  0
    1.2760    0.0000    0.0000 C   0  0  0  0  0  0  0  0  0  0  0  0
    0.3943    1.2135    0.0000 C   0  0  0  0  0  0  0  0  0  0  0  0
    0.8578    2.6401    0.0000 C   0  0  0  0  0  0  0  0  0  0  0  0
   -0.1459    3.7548    0.0000 N   0  0  0  0  0  0  0  0  0  0  0  0
   -1.6377    3.5980    0.0000 C   0  0  0  0  0  0  0  0  0  0  0  0
   -2.3877    2.2990    0.0000 C   0  0  0  0  0  0  0  0  0  0  0  0
   -2.2478    4.9684    0.0000 N   0  0  0  0  0  0  0  0  0  0  0  0
   -1.1330    5.9720    0.0000 C   0  0  0  0  0  0  0  0  0  0  0  0
   -1.2898    7.4638    0.0000 Cl  0  0  0  0  0  0  0  0  0  0  0  0
    0.1660    5.2220    0.0000 C   0  0  0  0  0  0  0  0  0  0  0  0
    1.5363    5.8322    0.0000 Cl  0  0  0  0  0  0  0  0  0  0  0  0
   -1.0323    0.7500    0.0000 S   0  0  0  0  0  0  0  0  0  0  0  0
   -1.0323   -0.7500    0.0000 C   0  0  0  0  0  0  0  0  0  0  0  0
    0.3943   -1.2135    0.0000 C   0  0  0  0  0  0  0  0  0  0  0  0
    0.7062   -2.6807    0.0000 C   0  0  0  0  0  0  0  0  0  0  0  0
    2.1328   -3.1443    0.0000 O   0  0  0  0  0  0  0  0  0  0  0  0
   -0.4086   -3.6844    0.0000 N   0  0  0  0  0  0  0  0  0  0  0  0
   -0.0967   -5.1517    0.0000 C   0  0  0  0  0  0  0  0  0  0  0  0
   -1.8351   -3.2209    0.0000 C   0  0  0  0  0  0  0  0  0  0  0  0
   -2.9499   -4.2246    0.0000 O   0  0  0  0  0  0  0  0  0  0  0  0
   -2.1470   -1.7537    0.0000 N   0  0  0  0  0  0  0  0  0  0  0  0
   -3.5736   -1.2902    0.0000 C   0  0  0  0  0  0  0  0  0  0  0  0
   -3.8855    0.1771    0.0000 C   0  0  0  0  0  0  0  0  0  0  0  0
   -5.3120    0.6406    0.0000 C   0  0  0  0  0  0  0  0  0  0  0  0
   -2.7707    1.1807    0.0000 C   0  0  0  0  0  0  0  0  0  0  0  0
  1  2  1  0
  2  3  1  0
  3  4  1  0
  3  5  1  0
  5  6  2  0
  5  7  1  0
  7  8  2  0
  8  9  1  0
  9 10  1  0
 10 11  1  0
 11 12  1  0
 11 13  2  0
 13 14  1  0
 14 15  1  0
 14 16  2  0
 16 17  1  0
  8 18  1  0
 18 19  1  0
 19 20  2  0
 20 21  1  0
 21 22  2  0
 21 23  1  0
 23 24  1  0
 23 25  1  0
 25 26  2  0
 25 27  1  0
 27 28  1  0
 28 29  1  0
 29 30  1  0
 29 31  1  0
 20  7  1  0
 16 10  1  0
 27 19  1  0
M  END
>  <assay_description>  (185) 
Inhibition of human BSEP expressed in baculovirus transfected fall armyworm Sf21 cell membranes vesicles assessed as reduction in ATP-dependent [3H]-taurocholate transport into vesicles incubated for 5 mins by Topcount based rapid filtration method

>  <molecule_pref_name>  (185) 
None

>  <canonical_smiles>  (185) 
CON(C)C(=O)c1c(Cn2c(C)nc(Cl)c2Cl)sc2c1c(=O)n(C)c(=O)n2CC(C)C

>  <pchembl_value>  (185) 
4.79

>  <standard_type>  (185) 
IC50

>  <standard_relation>  (185) 
=

>  <standard_value>  (185) 
16260.0

>  <standard_units>  (185) 
nM

>  <target_pref_name>  (185) 
Bile salt export pump

>  <target_organism>  (185) 
Homo sapiens

$$$$
CHEMBL326239
     RDKit          2D

 32 34  0  0  0  0  0  0  0  0999 V2000
    2.7760    0.0000    0.0000 O   0  0  0  0  0  0  0  0  0  0  0  0
    1.2760    0.0000    0.0000 C   0  0  0  0  0  0  0  0  0  0  0  0
    0.3943    1.2135    0.0000 N   0  0  0  0  0  0  0  0  0  0  0  0
   -1.0323    0.7500    0.0000 C   0  0  0  0  0  0  0  0  0  0  0  0
   -2.3313    1.5000    0.0000 C   0  0  0  0  0  0  0  0  0  0  0  0
   -2.3313    3.0000    0.0000 O   0  0  0  0  0  0  0  0  0  0  0  0
   -3.6304    0.7500    0.0000 C   0  0  0  0  0  0  0  0  0  0  0  0
   -3.6304   -0.7500    0.0000 C   0  0  0  0  0  0  0  0  0  0  0  0
   -2.3313   -1.5000    0.0000 C   0  0  0  0  0  0  0  0  0  0  0  0
   -2.3313   -3.0000    0.0000 C   0  0  0  0  0  0  0  0  0  0  0  0
   -3.6304   -3.7500    0.0000 C   0  0  0  0  0  0  0  0  0  0  0  0
   -3.6304   -5.2500    0.0000 N   0  0  0  0  0  0  0  0  0  0  0  0
   -4.9294   -6.0000    0.0000 C   0  0  0  0  0  0  0  0  0  0  0  0
   -4.9294   -7.5000    0.0000 C   0  0  0  0  0  0  0  0  0  0  0  0
   -6.2284   -8.2500    0.0000 C   0  0  0  0  0  0  0  0  0  0  0  0
   -6.2284   -9.7500    0.0000 S   0  0  0  0  0  0  0  0  0  0  0  0
   -7.7284   -9.7500    0.0000 O   0  0  0  0  0  0  0  0  0  0  0  0
   -4.7284   -9.7500    0.0000 O   0  0  0  0  0  0  0  0  0  0  0  0
   -6.2284  -11.2500    0.0000 C   0  0  0  0  0  0  0  0  0  0  0  0
   -4.9294  -12.0000    0.0000 C   0  0  0  0  0  0  0  0  0  0  0  0
   -4.9294  -13.5000    0.0000 C   0  0  0  0  0  0  0  0  0  0  0  0
   -3.6304  -14.2500    0.0000 O   0  0  0  0  0  0  0  0  0  0  0  0
   -3.6304  -15.7500    0.0000 C   0  0  0  0  0  0  0  0  0  0  0  0
   -2.3313  -16.5000    0.0000 C   0  0  0  0  0  0  0  0  0  0  0  0
   -2.3313  -18.0000    0.0000 C   0  0  0  0  0  0  0  0  0  0  0  0
   -3.6304  -18.7500    0.0000 C   0  0  0  0  0  0  0  0  0  0  0  0
   -3.6304  -20.2500    0.0000 C   0  0  0  0  0  0  0  0  0  0  0  0
   -2.3313  -21.0000    0.0000 C   0  0  0  0  0  0  0  0  0  0  0  0
   -1.0323  -20.2500    0.0000 C   0  0  0  0  0  0  0  0  0  0  0  0
   -1.0323  -18.7500    0.0000 C   0  0  0  0  0  0  0  0  0  0  0  0
   -1.0323   -0.7500    0.0000 C   0  0  0  0  0  0  0  0  0  0  0  0
    0.3943   -1.2135    0.0000 S   0  0  0  0  0  0  0  0  0  0  0  0
  1  2  2  0
  2  3  1  0
  3  4  1  0
  4  5  2  0
  5  6  1  0
  5  7  1  0
  7  8  2  0
  8  9  1  0
  9 10  1  0
 10 11  1  0
 11 12  1  0
 12 13  1  0
 13 14  1  0
 14 15  1  0
 15 16  1  0
 16 17  2  0
 16 18  2  0
 16 19  1  0
 19 20  1  0
 20 21  1  0
 21 22  1  0
 22 23  1  0
 23 24  1  0
 24 25  1  0
 25 26  2  0
 26 27  1  0
 27 28  2  0
 28 29  1  0
 29 30  2  0
  9 31  2  0
 31 32  1  0
 32  2  1  0
 31  4  1  0
 30 25  1  0
M  END
>  <assay_description>  (186) 
Inhibition of human BSEP expressed in baculovirus transfected fall armyworm Sf21 cell membranes vesicles assessed as reduction in ATP-dependent [3H]-taurocholate transport into vesicles incubated for 5 mins by Topcount based rapid filtration method

>  <molecule_pref_name>  (186) 
None

>  <canonical_smiles>  (186) 
O=c1[nH]c2c(O)ccc(CCNCCCS(=O)(=O)CCCOCCc3ccccc3)c2s1

>  <pchembl_value>  (186) 
4.49

>  <standard_type>  (186) 
IC50

>  <standard_relation>  (186) 
=

>  <standard_value>  (186) 
32350.0

>  <standard_units>  (186) 
nM

>  <target_pref_name>  (186) 
Bile salt export pump

>  <target_organism>  (186) 
Homo sapiens

$$$$
CHEMBL1604571
     RDKit          2D

 31 33  0  0  0  0  0  0  0  0999 V2000
    6.4952   -6.8350    0.0000 C   0  0  0  0  0  0  0  0  0  0  0  0
    5.1962   -6.0850    0.0000 C   0  0  0  0  0  0  0  0  0  0  0  0
    3.8971   -6.8350    0.0000 O   0  0  0  0  0  0  0  0  0  0  0  0
    2.5981   -6.0850    0.0000 C   0  0  0  0  0  0  0  0  0  0  0  0
    2.5981   -4.5850    0.0000 O   0  0  0  0  0  0  0  0  0  0  0  0
    1.2990   -6.8350    0.0000 C   0  0  0  0  0  0  0  0  0  0  0  0
    1.2990   -8.3350    0.0000 C   0  0  0  0  0  0  0  0  0  0  0  0
    2.5981   -9.0850    0.0000 C   0  0  0  0  0  0  0  0  0  0  0  0
    2.5981  -10.5850    0.0000 C   0  0  0  0  0  0  0  0  0  0  0  0
    3.8971  -11.3350    0.0000 C   0  0  0  0  0  0  0  0  0  0  0  0
    3.8971  -12.8350    0.0000 C   0  0  0  0  0  0  0  0  0  0  0  0
    2.5981  -13.5850    0.0000 C   0  0  0  0  0  0  0  0  0  0  0  0
    1.2990  -12.8350    0.0000 C   0  0  0  0  0  0  0  0  0  0  0  0
    1.2990  -11.3350    0.0000 C   0  0  0  0  0  0  0  0  0  0  0  0
   -0.0000   -6.0850    0.0000 N   0  0  0  0  0  0  0  0  0  0  0  0
   -0.0000   -4.5850    0.0000 C   0  0  0  0  0  0  0  0  0  0  0  0
    1.3515   -3.9342    0.0000 C   0  0  0  0  0  0  0  0  0  0  0  0
    1.6852   -2.4718    0.0000 C   0  0  0  0  0  0  0  0  0  0  0  0
    0.7500   -1.2990    0.0000 C   0  0  0  0  0  0  0  0  0  0  0  0
    1.5000    0.0000    0.0000 C   0  0  0  0  0  0  0  0  0  0  0  0
    0.7500    1.2990    0.0000 C   0  0  0  0  0  0  0  0  0  0  0  0
   -0.7500    1.2990    0.0000 C   0  0  0  0  0  0  0  0  0  0  0  0
   -1.5000    0.0000    0.0000 C   0  0  0  0  0  0  0  0  0  0  0  0
   -0.7500   -1.2990    0.0000 C   0  0  0  0  0  0  0  0  0  0  0  0
   -1.6852   -2.4718    0.0000 N   0  0  0  0  0  0  0  0  0  0  0  0
   -3.1476   -2.1380    0.0000 C   0  0  0  0  0  0  0  0  0  0  0  0
   -3.5898   -0.7046    0.0000 C   0  0  0  0  0  0  0  0  0  0  0  0
   -2.5695    0.3949    0.0000 O   0  0  0  0  0  0  0  0  0  0  0  0
   -5.0522   -0.3709    0.0000 O   0  0  0  0  0  0  0  0  0  0  0  0
   -1.3515   -3.9342    0.0000 C   0  0  0  0  0  0  0  0  0  0  0  0
   -2.5242   -4.8694    0.0000 O   0  0  0  0  0  0  0  0  0  0  0  0
  1  2  1  0
  2  3  1  0
  3  4  1  0
  4  5  2  0
  4  6  1  0
  6  7  1  0
  7  8  1  0
  8  9  1  0
  9 10  2  0
 10 11  1  0
 11 12  2  0
 12 13  1  0
 13 14  2  0
  6 15  1  0
 15 16  1  0
 16 17  1  0
 17 18  1  0
 18 19  1  0
 19 20  2  0
 20 21  1  0
 21 22  2  0
 22 23  1  0
 23 24  2  0
 24 25  1  0
 25 26  1  0
 26 27  1  0
 27 28  2  0
 27 29  1  0
 25 30  1  0
 30 31  2  0
 14  9  1  0
 30 16  1  0
 24 19  1  0
M  END
>  <assay_description>  (187) 
Inhibition of human BSEP expressed in baculovirus transfected fall armyworm Sf21 cell membranes vesicles assessed as reduction in ATP-dependent [3H]-taurocholate transport into vesicles incubated for 5 mins by Topcount based rapid filtration method

>  <molecule_pref_name>  (187) 
None

>  <canonical_smiles>  (187) 
CCOC(=O)C(CCc1ccccc1)NC1CCc2ccccc2N(CC(=O)O)C1=O

>  <pchembl_value>  (187) 
4.13

>  <standard_type>  (187) 
IC50

>  <standard_relation>  (187) 
=

>  <standard_value>  (187) 
74860.0

>  <standard_units>  (187) 
nM

>  <target_pref_name>  (187) 
Bile salt export pump

>  <target_organism>  (187) 
Homo sapiens

$$$$
CHEMBL1237132
     RDKit          2D

 30 31  0  0  0  0  0  0  0  0999 V2000
   10.5000   -5.1962    0.0000 C   0  0  0  0  0  0  0  0  0  0  0  0
    9.7500   -3.8971    0.0000 C   0  0  0  0  0  0  0  0  0  0  0  0
    8.2500   -3.8971    0.0000 C   0  0  0  0  0  0  0  0  0  0  0  0
    7.5000   -2.5981    0.0000 C   0  0  0  0  0  0  0  0  0  0  0  0
    8.2500   -1.2990    0.0000 O   0  0  0  0  0  0  0  0  0  0  0  0
    6.0000   -2.5981    0.0000 O   0  0  0  0  0  0  0  0  0  0  0  0
    5.2500   -1.2990    0.0000 C   0  0  0  0  0  0  0  0  0  0  0  0
    3.7500   -1.2990    0.0000 O   0  0  0  0  0  0  0  0  0  0  0  0
    3.0000    0.0000    0.0000 C   0  0  0  0  0  0  0  0  0  0  0  0
    3.7500    1.2990    0.0000 O   0  0  0  0  0  0  0  0  0  0  0  0
    1.5000    0.0000    0.0000 C   0  0  0  0  0  0  0  0  0  0  0  0
    0.7500   -1.2990    0.0000 C   0  0  0  0  0  0  0  0  0  0  0  0
    1.5000   -2.5981    0.0000 C   0  0  0  0  0  0  0  0  0  0  0  0
   -0.7500   -1.2990    0.0000 N   0  0  0  0  0  0  0  0  0  0  0  0
   -1.5000    0.0000    0.0000 C   0  0  0  0  0  0  0  0  0  0  0  0
   -3.0000    0.0000    0.0000 C   0  0  0  0  0  0  0  0  0  0  0  0
   -0.7500    1.2990    0.0000 C   0  0  0  0  0  0  0  0  0  0  0  0
   -1.5000    2.5981    0.0000 C   0  0  0  0  0  0  0  0  0  0  0  0
   -1.1155    3.5040    0.0000 O   0  0  0  0  0  0  0  0  0  0  0  0
   -3.0000    2.5981    0.0000 O   0  0  0  0  0  0  0  0  0  0  0  0
   -3.7500    3.8971    0.0000 C   0  0  0  0  0  0  0  0  0  0  0  0
    0.7500    1.2990    0.0000 C   0  0  0  0  0  0  0  0  0  0  0  0
    1.5000    2.5981    0.0000 C   0  0  0  0  0  0  0  0  0  0  0  0
    3.0000    2.5981    0.0000 C   0  0  0  0  0  0  0  0  0  0  0  0
    3.7500    3.8971    0.0000 C   0  0  0  0  0  0  0  0  0  0  0  0
    3.0000    5.1962    0.0000 C   0  0  0  0  0  0  0  0  0  0  0  0
    1.5000    5.1962    0.0000 C   0  0  0  0  0  0  0  0  0  0  0  0
    0.7500    6.4952    0.0000 Cl  0  0  0  0  0  0  0  0  0  0  0  0
    0.7500    3.8971    0.0000 C   0  0  0  0  0  0  0  0  0  0  0  0
   -0.2268    4.0171    0.0000 Cl  0  0  0  0  0  0  0  0  0  0  0  0
  1  2  1  0
  2  3  1  0
  3  4  1  0
  4  5  2  0
  4  6  1  0
  6  7  1  0
  7  8  1  0
  8  9  1  0
  9 10  2  0
  9 11  1  0
 11 12  2  0
 12 13  1  0
 12 14  1  0
 14 15  1  0
 15 16  1  0
 15 17  2  0
 17 18  1  0
 18 19  2  0
 18 20  1  0
 20 21  1  0
 17 22  1  0
 22 23  1  0
 23 24  2  0
 24 25  1  0
 25 26  2  0
 26 27  1  0
 27 28  1  0
 27 29  2  0
 29 30  1  0
 22 11  1  0
 29 23  1  0
M  END
>  <assay_description>  (188) 
Inhibition of human BSEP expressed in baculovirus transfected fall armyworm Sf21 cell membranes vesicles assessed as reduction in ATP-dependent [3H]-taurocholate transport into vesicles incubated for 5 mins by Topcount based rapid filtration method

>  <molecule_pref_name>  (188) 
CLEVIDIPINE

>  <canonical_smiles>  (188) 
CCCC(=O)OCOC(=O)C1=C(C)NC(C)=C(C(=O)OC)C1c1cccc(Cl)c1Cl

>  <pchembl_value>  (188) 
4.44

>  <standard_type>  (188) 
IC50

>  <standard_relation>  (188) 
=

>  <standard_value>  (188) 
36350.0

>  <standard_units>  (188) 
nM

>  <target_pref_name>  (188) 
Bile salt export pump

>  <target_organism>  (188) 
Homo sapiens

$$$$
CHEMBL111220
     RDKit          2D

 31 33  0  0  0  0  0  0  0  0999 V2000
  -10.7340    1.4841    0.0000 O   0  0  0  0  0  0  0  0  0  0  0  0
  -11.1975    2.9107    0.0000 S   0  0  0  0  0  0  0  0  0  0  0  0
  -11.6610    4.3373    0.0000 O   0  0  0  0  0  0  0  0  0  0  0  0
  -12.6241    2.4472    0.0000 C   0  0  0  0  0  0  0  0  0  0  0  0
  -12.9359    0.9799    0.0000 C   0  0  0  0  0  0  0  0  0  0  0  0
  -14.3625    0.5164    0.0000 O   0  0  0  0  0  0  0  0  0  0  0  0
  -14.6744   -0.9508    0.0000 C   0  0  0  0  0  0  0  0  0  0  0  0
  -16.1010   -1.4143    0.0000 C   0  0  0  0  0  0  0  0  0  0  0  0
  -16.4129   -2.8816    0.0000 C   0  0  0  0  0  0  0  0  0  0  0  0
  -17.8394   -3.3451    0.0000 C   0  0  0  0  0  0  0  0  0  0  0  0
  -18.1513   -4.8123    0.0000 C   0  0  0  0  0  0  0  0  0  0  0  0
  -17.0366   -5.8160    0.0000 C   0  0  0  0  0  0  0  0  0  0  0  0
  -15.6100   -5.3525    0.0000 C   0  0  0  0  0  0  0  0  0  0  0  0
  -15.2981   -3.8853    0.0000 C   0  0  0  0  0  0  0  0  0  0  0  0
   -9.7709    3.3742    0.0000 N   0  0  0  0  0  0  0  0  0  0  0  0
   -8.6562    2.3705    0.0000 C   0  0  0  0  0  0  0  0  0  0  0  0
   -7.2296    2.8340    0.0000 C   0  0  0  0  0  0  0  0  0  0  0  0
   -6.1149    1.8303    0.0000 N   0  0  0  0  0  0  0  0  0  0  0  0
   -4.6883    2.2939    0.0000 C   0  0  0  0  0  0  0  0  0  0  0  0
   -3.5736    1.2902    0.0000 C   0  0  0  0  0  0  0  0  0  0  0  0
   -2.1470    1.7537    0.0000 C   0  0  0  0  0  0  0  0  0  0  0  0
   -1.8351    3.2209    0.0000 C   0  0  0  0  0  0  0  0  0  0  0  0
   -0.4086    3.6844    0.0000 C   0  0  0  0  0  0  0  0  0  0  0  0
    0.7062    2.6807    0.0000 C   0  0  0  0  0  0  0  0  0  0  0  0
    2.1328    3.1443    0.0000 O   0  0  0  0  0  0  0  0  0  0  0  0
    0.3943    1.2135    0.0000 C   0  0  0  0  0  0  0  0  0  0  0  0
    1.2760    0.0000    0.0000 N   0  0  0  0  0  0  0  0  0  0  0  0
    0.3943   -1.2135    0.0000 C   0  0  0  0  0  0  0  0  0  0  0  0
    0.8578   -2.6401    0.0000 O   0  0  0  0  0  0  0  0  0  0  0  0
   -1.0323   -0.7500    0.0000 S   0  0  0  0  0  0  0  0  0  0  0  0
   -1.0323    0.7500    0.0000 C   0  0  0  0  0  0  0  0  0  0  0  0
  1  2  2  0
  2  3  2  0
  2  4  1  0
  4  5  1  0
  5  6  1  0
  6  7  1  0
  7  8  1  0
  8  9  1  0
  9 10  2  0
 10 11  1  0
 11 12  2  0
 12 13  1  0
 13 14  2  0
  2 15  1  0
 15 16  1  0
 16 17  1  0
 17 18  1  0
 18 19  1  0
 19 20  1  0
 20 21  1  0
 21 22  2  0
 22 23  1  0
 23 24  2  0
 24 25  1  0
 24 26  1  0
 26 27  1  0
 27 28  2  0
 28 29  1  0
 28 30  1  0
 30 31  1  0
 14  9  1  0
 31 21  1  0
 31 26  2  0
M  END
>  <assay_description>  (189) 
Inhibition of human BSEP expressed in baculovirus transfected fall armyworm Sf21 cell membranes vesicles assessed as reduction in ATP-dependent [3H]-taurocholate transport into vesicles incubated for 5 mins by Topcount based rapid filtration method

>  <molecule_pref_name>  (189) 
None

>  <canonical_smiles>  (189) 
O=S(=O)(CCOCCc1ccccc1)NCCNCCc1ccc(O)c2nc(O)sc12

>  <pchembl_value>  (189) 
4.45

>  <standard_type>  (189) 
IC50

>  <standard_relation>  (189) 
=

>  <standard_value>  (189) 
35690.0

>  <standard_units>  (189) 
nM

>  <target_pref_name>  (189) 
Bile salt export pump

>  <target_organism>  (189) 
Homo sapiens

$$$$
CHEMBL682
     RDKit          2D

 25 27  0  0  0  0  0  0  0  0999 V2000
    5.2500   -9.0933    0.0000 C   0  0  0  0  0  0  0  0  0  0  0  0
    6.0000   -7.7942    0.0000 C   0  0  0  0  0  0  0  0  0  0  0  0
    5.2500   -6.4952    0.0000 N   0  0  0  0  0  0  0  0  0  0  0  0
    3.7500   -6.4952    0.0000 C   0  0  0  0  0  0  0  0  0  0  0  0
    3.0000   -7.7942    0.0000 C   0  0  0  0  0  0  0  0  0  0  0  0
    6.0000   -5.1962    0.0000 C   0  0  0  0  0  0  0  0  0  0  0  0
    5.2500   -3.8971    0.0000 C   0  0  0  0  0  0  0  0  0  0  0  0
    3.7500   -3.8971    0.0000 C   0  0  0  0  0  0  0  0  0  0  0  0
    3.0000   -2.5981    0.0000 C   0  0  0  0  0  0  0  0  0  0  0  0
    1.5000   -2.5981    0.0000 N   0  0  0  0  0  0  0  0  0  0  0  0
    0.7500   -1.2990    0.0000 C   0  0  0  0  0  0  0  0  0  0  0  0
    1.5000    0.0000    0.0000 C   0  0  0  0  0  0  0  0  0  0  0  0
    0.7500    1.2990    0.0000 C   0  0  0  0  0  0  0  0  0  0  0  0
   -0.7500    1.2990    0.0000 N   0  0  0  0  0  0  0  0  0  0  0  0
   -1.5000    0.0000    0.0000 C   0  0  0  0  0  0  0  0  0  0  0  0
   -3.0000    0.0000    0.0000 C   0  0  0  0  0  0  0  0  0  0  0  0
   -3.7500   -1.2990    0.0000 C   0  0  0  0  0  0  0  0  0  0  0  0
   -5.2500   -1.2990    0.0000 Cl  0  0  0  0  0  0  0  0  0  0  0  0
   -3.0000   -2.5981    0.0000 C   0  0  0  0  0  0  0  0  0  0  0  0
   -1.5000   -2.5981    0.0000 C   0  0  0  0  0  0  0  0  0  0  0  0
   -0.7500   -1.2990    0.0000 C   0  0  0  0  0  0  0  0  0  0  0  0
    3.7500   -1.2990    0.0000 C   0  0  0  0  0  0  0  0  0  0  0  0
    5.2500   -1.2990    0.0000 C   0  0  0  0  0  0  0  0  0  0  0  0
    6.0000   -2.5981    0.0000 C   0  0  0  0  0  0  0  0  0  0  0  0
    7.5000   -2.5981    0.0000 O   0  0  0  0  0  0  0  0  0  0  0  0
  1  2  1  0
  2  3  1  0
  3  4  1  0
  4  5  1  0
  3  6  1  0
  6  7  1  0
  7  8  2  0
  8  9  1  0
  9 10  1  0
 10 11  1  0
 11 12  2  0
 12 13  1  0
 13 14  2  0
 14 15  1  0
 15 16  2  0
 16 17  1  0
 17 18  1  0
 17 19  2  0
 19 20  1  0
 20 21  2  0
  9 22  2  0
 22 23  1  0
 23 24  2  0
 24 25  1  0
 24  7  1  0
 21 11  1  0
 21 15  1  0
M  END
>  <assay_description>  (190) 
Inhibition of human BSEP expressed in baculovirus transfected fall armyworm Sf21 cell membranes vesicles assessed as reduction in ATP-dependent [3H]-taurocholate transport into vesicles incubated for 5 mins by Topcount based rapid filtration method

>  <molecule_pref_name>  (190) 
AMODIAQUINE

>  <canonical_smiles>  (190) 
CCN(CC)Cc1cc(Nc2ccnc3cc(Cl)ccc23)ccc1O

>  <pchembl_value>  (190) 
4.11

>  <standard_type>  (190) 
IC50

>  <standard_relation>  (190) 
=

>  <standard_value>  (190) 
77760.0

>  <standard_units>  (190) 
nM

>  <target_pref_name>  (190) 
Bile salt export pump

>  <target_organism>  (190) 
Homo sapiens

$$$$
CHEMBL1491
     RDKit          2D

 28 29  0  0  0  0  0  0  0  0999 V2000
    6.0000   -2.5981    0.0000 C   0  0  0  0  0  0  0  0  0  0  0  0
    5.2500   -1.2990    0.0000 C   0  0  0  0  0  0  0  0  0  0  0  0
    3.7500   -1.2990    0.0000 O   0  0  0  0  0  0  0  0  0  0  0  0
    3.0000    0.0000    0.0000 C   0  0  0  0  0  0  0  0  0  0  0  0
    3.7500    1.2990    0.0000 O   0  0  0  0  0  0  0  0  0  0  0  0
    1.5000    0.0000    0.0000 C   0  0  0  0  0  0  0  0  0  0  0  0
    0.7500   -1.2990    0.0000 C   0  0  0  0  0  0  0  0  0  0  0  0
    1.5000   -2.5981    0.0000 C   0  0  0  0  0  0  0  0  0  0  0  0
    0.7500   -3.8971    0.0000 O   0  0  0  0  0  0  0  0  0  0  0  0
    1.5000   -5.1962    0.0000 C   0  0  0  0  0  0  0  0  0  0  0  0
    0.7500   -6.4952    0.0000 C   0  0  0  0  0  0  0  0  0  0  0  0
    1.5000   -7.7942    0.0000 N   0  0  0  0  0  0  0  0  0  0  0  0
   -0.7500   -1.2990    0.0000 N   0  0  0  0  0  0  0  0  0  0  0  0
   -1.5000    0.0000    0.0000 C   0  0  0  0  0  0  0  0  0  0  0  0
   -3.0000    0.0000    0.0000 C   0  0  0  0  0  0  0  0  0  0  0  0
   -0.7500    1.2990    0.0000 C   0  0  0  0  0  0  0  0  0  0  0  0
   -1.5000    2.5981    0.0000 C   0  0  0  0  0  0  0  0  0  0  0  0
   -1.1155    3.5040    0.0000 O   0  0  0  0  0  0  0  0  0  0  0  0
   -3.0000    2.5981    0.0000 O   0  0  0  0  0  0  0  0  0  0  0  0
   -3.7500    3.8971    0.0000 C   0  0  0  0  0  0  0  0  0  0  0  0
    0.7500    1.2990    0.0000 C   0  0  0  0  0  0  0  0  0  0  0  0
    1.5000    2.5981    0.0000 C   0  0  0  0  0  0  0  0  0  0  0  0
    3.0000    2.5981    0.0000 C   0  0  0  0  0  0  0  0  0  0  0  0
    3.7500    3.8971    0.0000 C   0  0  0  0  0  0  0  0  0  0  0  0
    3.0000    5.1962    0.0000 C   0  0  0  0  0  0  0  0  0  0  0  0
    1.5000    5.1962    0.0000 C   0  0  0  0  0  0  0  0  0  0  0  0
    0.7500    3.8971    0.0000 C   0  0  0  0  0  0  0  0  0  0  0  0
   -0.2268    4.0171    0.0000 Cl  0  0  0  0  0  0  0  0  0  0  0  0
  1  2  1  0
  2  3  1  0
  3  4  1  0
  4  5  2  0
  4  6  1  0
  6  7  2  0
  7  8  1  0
  8  9  1  0
  9 10  1  0
 10 11  1  0
 11 12  1  0
  7 13  1  0
 13 14  1  0
 14 15  1  0
 14 16  2  0
 16 17  1  0
 17 18  2  0
 17 19  1  0
 19 20  1  0
 16 21  1  0
 21 22  1  0
 22 23  2  0
 23 24  1  0
 24 25  2  0
 25 26  1  0
 26 27  2  0
 27 28  1  0
 21  6  1  0
 27 22  1  0
M  END
>  <assay_description>  (191) 
Inhibition of human BSEP expressed in baculovirus transfected fall armyworm Sf21 cell membranes vesicles assessed as reduction in ATP-dependent [3H]-taurocholate transport into vesicles incubated for 5 mins by Topcount based rapid filtration method

>  <molecule_pref_name>  (191) 
AMLODIPINE

>  <canonical_smiles>  (191) 
CCOC(=O)C1=C(COCCN)NC(C)=C(C(=O)OC)C1c1ccccc1Cl

>  <pchembl_value>  (191) 
4.80

>  <standard_type>  (191) 
IC50

>  <standard_relation>  (191) 
=

>  <standard_value>  (191) 
16000.0

>  <standard_units>  (191) 
nM

>  <target_pref_name>  (191) 
Bile salt export pump

>  <target_organism>  (191) 
Homo sapiens

$$$$
CHEMBL54349
     RDKit          2D

 27 29  0  0  0  0  0  0  0  0999 V2000
   -8.8374   -1.1051    0.0000 C   0  0  0  0  0  0  0  0  0  0  0  0
   -7.7227   -2.1088    0.0000 C   0  0  0  0  0  0  0  0  0  0  0  0
   -6.2961   -1.6453    0.0000 C   0  0  0  0  0  0  0  0  0  0  0  0
   -5.1814   -2.6490    0.0000 N   0  0  0  0  0  0  0  0  0  0  0  0
   -5.4933   -4.1162    0.0000 C   0  0  0  0  0  0  0  0  0  0  0  0
   -6.9199   -4.5797    0.0000 C   0  0  0  0  0  0  0  0  0  0  0  0
   -7.2317   -6.0469    0.0000 C   0  0  0  0  0  0  0  0  0  0  0  0
   -3.7548   -2.1855    0.0000 C   0  0  0  0  0  0  0  0  0  0  0  0
   -3.4430   -0.7182    0.0000 O   0  0  0  0  0  0  0  0  0  0  0  0
   -2.6401   -3.1891    0.0000 C   0  0  0  0  0  0  0  0  0  0  0  0
   -1.2135   -2.7256    0.0000 C   0  0  0  0  0  0  0  0  0  0  0  0
   -0.0000   -3.6073    0.0000 C   0  0  0  0  0  0  0  0  0  0  0  0
   -0.0000   -5.1073    0.0000 C   0  0  0  0  0  0  0  0  0  0  0  0
   -1.2990   -5.8573    0.0000 C   0  0  0  0  0  0  0  0  0  0  0  0
   -1.2990   -7.3573    0.0000 C   0  0  0  0  0  0  0  0  0  0  0  0
   -0.0000   -8.1073    0.0000 C   0  0  0  0  0  0  0  0  0  0  0  0
   -0.0000   -9.6073    0.0000 Cl  0  0  0  0  0  0  0  0  0  0  0  0
    1.2990   -7.3573    0.0000 C   0  0  0  0  0  0  0  0  0  0  0  0
    1.2990   -5.8573    0.0000 C   0  0  0  0  0  0  0  0  0  0  0  0
    1.2135   -2.7256    0.0000 N   0  0  0  0  0  0  0  0  0  0  0  0
    0.7500   -1.2990    0.0000 C   0  0  0  0  0  0  0  0  0  0  0  0
    1.5000    0.0000    0.0000 C   0  0  0  0  0  0  0  0  0  0  0  0
    0.7500    1.2990    0.0000 C   0  0  0  0  0  0  0  0  0  0  0  0
   -0.7500    1.2990    0.0000 C   0  0  0  0  0  0  0  0  0  0  0  0
   -1.5000    2.5981    0.0000 Cl  0  0  0  0  0  0  0  0  0  0  0  0
   -1.5000    0.0000    0.0000 C   0  0  0  0  0  0  0  0  0  0  0  0
   -0.7500   -1.2990    0.0000 N   0  0  0  0  0  0  0  0  0  0  0  0
  1  2  1  0
  2  3  1  0
  3  4  1  0
  4  5  1  0
  5  6  1  0
  6  7  1  0
  4  8  1  0
  8  9  2  0
  8 10  1  0
 10 11  1  0
 11 12  2  0
 12 13  1  0
 13 14  2  0
 14 15  1  0
 15 16  2  0
 16 17  1  0
 16 18  1  0
 18 19  2  0
 12 20  1  0
 20 21  2  0
 21 22  1  0
 22 23  2  0
 23 24  1  0
 24 25  1  0
 24 26  2  0
 26 27  1  0
 27 11  1  0
 19 13  1  0
 27 21  1  0
M  END
>  <assay_description>  (192) 
Inhibition of human BSEP expressed in baculovirus transfected fall armyworm Sf21 cell membranes vesicles assessed as reduction in ATP-dependent [3H]-taurocholate transport into vesicles incubated for 5 mins by Topcount based rapid filtration method

>  <molecule_pref_name>  (192) 
ALPIDEM

>  <canonical_smiles>  (192) 
CCCN(CCC)C(=O)Cc1c(-c2ccc(Cl)cc2)nc2ccc(Cl)cn12

>  <pchembl_value>  (192) 
5.04

>  <standard_type>  (192) 
IC50

>  <standard_relation>  (192) 
=

>  <standard_value>  (192) 
9155.0

>  <standard_units>  (192) 
nM

>  <target_pref_name>  (192) 
Bile salt export pump

>  <target_organism>  (192) 
Homo sapiens

$$$$
CHEMBL362103
     RDKit          2D

 24 24  0  0  0  0  0  0  0  0999 V2000
   15.0000    2.5981    0.0000 C   0  0  0  0  0  0  0  0  0  0  0  0
   14.2500    1.2990    0.0000 C   0  0  0  0  0  0  0  0  0  0  0  0
   12.7500    1.2990    0.0000 C   0  0  0  0  0  0  0  0  0  0  0  0
   12.0000    0.0000    0.0000 S   0  0  0  0  0  3  0  0  0  0  0  0
   12.7500   -1.2990    0.0000 O   0  0  0  0  0  1  0  0  0  0  0  0
   10.5000    0.0000    0.0000 C   0  0  0  0  0  0  0  0  0  0  0  0
    9.7500   -1.2990    0.0000 C   0  0  0  0  0  0  0  0  0  0  0  0
    8.2500   -1.2990    0.0000 C   0  0  0  0  0  0  0  0  0  0  0  0
    7.5000   -2.5981    0.0000 N   0  0  0  0  0  0  0  0  0  0  0  0
    8.2500   -3.8971    0.0000 C   0  0  0  0  0  0  0  0  0  0  0  0
    9.7500   -3.8971    0.0000 C   0  0  0  0  0  0  0  0  0  0  0  0
    6.0000   -2.5981    0.0000 C   0  0  0  0  0  0  0  0  0  0  0  0
    5.2500   -1.2990    0.0000 C   0  0  0  0  0  0  0  0  0  0  0  0
    6.0000    0.0000    0.0000 O   0  0  0  0  0  0  0  0  0  0  0  0
    3.7500   -1.2990    0.0000 C   0  0  0  0  0  0  0  0  0  0  0  0
    3.0000    0.0000    0.0000 O   0  0  0  0  0  0  0  0  0  0  0  0
    1.5000    0.0000    0.0000 C   0  0  0  0  0  0  0  0  0  0  0  0
    0.7500   -1.2990    0.0000 C   0  0  0  0  0  0  0  0  0  0  0  0
   -0.7500   -1.2990    0.0000 C   0  0  0  0  0  0  0  0  0  0  0  0
   -1.5000    0.0000    0.0000 C   0  0  0  0  0  0  0  0  0  0  0  0
   -3.0000    0.0000    0.0000 C   0  0  0  0  0  0  0  0  0  0  0  0
   -4.5000    0.0000    0.0000 N   0  0  0  0  0  0  0  0  0  0  0  0
   -0.7500    1.2990    0.0000 C   0  0  0  0  0  0  0  0  0  0  0  0
    0.7500    1.2990    0.0000 C   0  0  0  0  0  0  0  0  0  0  0  0
  1  2  1  0
  2  3  1  0
  3  4  1  0
  4  5  1  0
  4  6  1  0
  6  7  1  0
  7  8  1  0
  8  9  1  0
  9 10  1  0
 10 11  1  0
  9 12  1  0
 12 13  1  0
 13 14  1  0
 13 15  1  0
 15 16  1  0
 16 17  1  0
 17 18  2  0
 18 19  1  0
 19 20  2  0
 20 21  1  0
 21 22  3  0
 20 23  1  0
 23 24  2  0
 24 17  1  0
M  CHG  2   4   1   5  -1
M  END
>  <assay_description>  (193) 
Inhibition of human BSEP expressed in baculovirus transfected fall armyworm Sf21 cell membranes vesicles assessed as reduction in ATP-dependent [3H]-taurocholate transport into vesicles incubated for 5 mins by Topcount based rapid filtration method

>  <molecule_pref_name>  (193) 
ALMOKALANT

>  <canonical_smiles>  (193) 
CCC[S+]([O-])CCCN(CC)CC(O)COc1ccc(C#N)cc1

>  <pchembl_value>  (193) 
4.25

>  <standard_type>  (193) 
IC50

>  <standard_relation>  (193) 
=

>  <standard_value>  (193) 
55750.0

>  <standard_units>  (193) 
nM

>  <target_pref_name>  (193) 
Bile salt export pump

>  <target_organism>  (193) 
Homo sapiens

$$$$
CHEMBL3697701
     RDKit          2D

 15 15  0  0  0  0  0  0  0  0999 V2000
    7.5000    0.0000    0.0000 C   0  0  0  0  0  0  0  0  0  0  0  0
    6.0000    0.0000    0.0000 C   0  0  0  0  0  0  0  0  0  0  0  0
    5.2500   -1.2990    0.0000 C   0  0  0  0  0  0  0  0  0  0  0  0
    6.0000   -2.5981    0.0000 N   0  0  0  0  0  0  0  0  0  0  0  0
    7.5000   -2.5981    0.0000 O   0  0  0  0  0  0  0  0  0  0  0  0
    3.7500   -1.2990    0.0000 C   0  0  0  0  0  0  0  0  0  0  0  0
    3.0000   -2.5981    0.0000 C   0  0  0  0  0  0  0  0  0  0  0  0
    3.0000    0.0000    0.0000 C   0  0  0  0  0  0  0  0  0  0  0  0
    1.5000    0.0000    0.0000 C   0  0  0  0  0  0  0  0  0  0  0  0
    0.7500   -1.2990    0.0000 C   0  0  0  0  0  0  0  0  0  0  0  0
   -0.7500   -1.2990    0.0000 C   0  0  0  0  0  0  0  0  0  0  0  0
   -1.5000    0.0000    0.0000 C   0  0  0  0  0  0  0  0  0  0  0  0
   -3.0000    0.0000    0.0000 F   0  0  0  0  0  0  0  0  0  0  0  0
   -0.7500    1.2990    0.0000 C   0  0  0  0  0  0  0  0  0  0  0  0
    0.7500    1.2990    0.0000 C   0  0  0  0  0  0  0  0  0  0  0  0
  1  2  1  0
  2  3  1  0
  3  4  2  0
  4  5  1  0
  3  6  1  0
  6  7  1  0
  6  8  2  0
  8  9  1  0
  9 10  2  0
 10 11  1  0
 11 12  2  0
 12 13  1  0
 12 14  1  0
 14 15  2  0
 15  9  1  0
M  END
>  <assay_description>  (194) 
Inhibition of human BSEP expressed in baculovirus transfected fall armyworm Sf21 cell membranes vesicles assessed as reduction in ATP-dependent [3H]-taurocholate transport into vesicles incubated for 5 mins by Topcount based rapid filtration method

>  <molecule_pref_name>  (194) 
None

>  <canonical_smiles>  (194) 
CCC(=N\O)/C(C)=C/c1ccc(F)cc1

>  <pchembl_value>  (194) 
4.57

>  <standard_type>  (194) 
IC50

>  <standard_relation>  (194) 
=

>  <standard_value>  (194) 
26810.0

>  <standard_units>  (194) 
nM

>  <target_pref_name>  (194) 
Bile salt export pump

>  <target_organism>  (194) 
Homo sapiens

$$$$
CHEMBL513
     RDKit          2D

 12 11  0  0  0  0  0  0  0  0999 V2000
   -2.5981    3.0000    0.0000 O   0  0  0  0  0  0  0  0  0  0  0  0
   -1.2990    2.2500    0.0000 N   0  0  0  0  0  0  0  0  0  0  0  0
   -1.2990    0.7500    0.0000 N   0  0  0  0  0  0  0  0  0  0  0  0
    0.0000    0.0000    0.0000 C   0  0  0  0  0  0  0  0  0  0  0  0
    1.2990    0.7500    0.0000 C   0  0  0  0  0  0  0  0  0  0  0  0
    2.5981   -0.0000    0.0000 Cl  0  0  0  0  0  0  0  0  0  0  0  0
   -2.5981    0.0000    0.0000 C   0  0  0  0  0  0  0  0  0  0  0  0
   -2.5981   -1.5000    0.0000 O   0  0  0  0  0  0  0  0  0  0  0  0
   -3.8971    0.7500    0.0000 N   0  0  0  0  0  0  0  0  0  0  0  0
   -5.1962    0.0000    0.0000 C   0  0  0  0  0  0  0  0  0  0  0  0
   -6.4952    0.7500    0.0000 C   0  0  0  0  0  0  0  0  0  0  0  0
   -7.7942    0.0000    0.0000 Cl  0  0  0  0  0  0  0  0  0  0  0  0
  1  2  2  0
  2  3  1  0
  3  4  1  0
  4  5  1  0
  5  6  1  0
  3  7  1  0
  7  8  2  0
  7  9  1  0
  9 10  1  0
 10 11  1  0
 11 12  1  0
M  END
>  <assay_description>  (195) 
Inhibition of human BSEP expressed in baculovirus transfected fall armyworm Sf21 cell membranes vesicles assessed as reduction in ATP-dependent [3H]-taurocholate transport into vesicles incubated for 5 mins by Topcount based rapid filtration method

>  <molecule_pref_name>  (195) 
CARMUSTINE

>  <canonical_smiles>  (195) 
O=NN(CCCl)C(=O)NCCCl

>  <pchembl_value>  (195) 
4.01

>  <standard_type>  (195) 
IC50

>  <standard_relation>  (195) 
=

>  <standard_value>  (195) 
97210.0

>  <standard_units>  (195) 
nM

>  <target_pref_name>  (195) 
Bile salt export pump

>  <target_organism>  (195) 
Homo sapiens

$$$$
CHEMBL1708
     RDKit          2D

 25 27  0  0  0  0  0  0  0  0999 V2000
    8.5272    0.0000    0.0000 Cl  0  0  0  0  0  0  0  0  0  0  0  0
    7.5272    3.5312    0.0000 F   0  0  0  0  0  0  0  0  0  0  0  0
    6.4125    4.5348    0.0000 C   0  0  0  0  0  0  0  0  0  0  0  0
    4.9859    4.0713    0.0000 C   0  0  0  0  0  0  0  0  0  0  0  0
    3.8712    5.0750    0.0000 C   0  0  0  0  0  0  0  0  0  0  0  0
    4.1831    6.5422    0.0000 C   0  0  0  0  0  0  0  0  0  0  0  0
    3.0684    7.5459    0.0000 C   0  0  0  0  0  0  0  0  0  0  0  0
    3.3802    9.0132    0.0000 C   0  0  0  0  0  0  0  0  0  0  0  0
    2.2655   10.0169    0.0000 C   0  0  0  0  0  0  0  0  0  0  0  0
    0.8389    9.5533    0.0000 N   0  0  0  0  0  0  0  0  0  0  0  0
    0.5271    8.0861    0.0000 C   0  0  0  0  0  0  0  0  0  0  0  0
    1.6418    7.0824    0.0000 C   0  0  0  0  0  0  0  0  0  0  0  0
    1.3299    5.6152    0.0000 C   0  0  0  0  0  0  0  0  0  0  0  0
   -0.0967    5.1517    0.0000 O   0  0  0  0  0  0  0  0  0  0  0  0
   -0.4086    3.6844    0.0000 C   0  0  0  0  0  0  0  0  0  0  0  0
   -1.8351    3.2209    0.0000 C   0  0  0  0  0  0  0  0  0  0  0  0
   -2.1470    1.7537    0.0000 C   0  0  0  0  0  0  0  0  0  0  0  0
   -1.0323    0.7500    0.0000 C   0  0  0  0  0  0  0  0  0  0  0  0
    0.3943    1.2135    0.0000 C   0  0  0  0  0  0  0  0  0  0  0  0
    0.7062    2.6807    0.0000 C   0  0  0  0  0  0  0  0  0  0  0  0
    1.2760    0.0000    0.0000 O   0  0  0  0  0  0  0  0  0  0  0  0
    0.3943   -1.2135    0.0000 C   0  0  0  0  0  0  0  0  0  0  0  0
   -1.0323   -0.7500    0.0000 O   0  0  0  0  0  0  0  0  0  0  0  0
    5.6097    7.0058    0.0000 C   0  0  0  0  0  0  0  0  0  0  0  0
    6.7244    6.0021    0.0000 C   0  0  0  0  0  0  0  0  0  0  0  0
  2  3  1  0
  3  4  2  0
  4  5  1  0
  5  6  2  0
  7  6  1  1
  7  8  1  0
  8  9  1  0
  9 10  1  0
 10 11  1  0
 11 12  1  0
 12 13  1  6
 13 14  1  0
 14 15  1  0
 15 16  2  0
 16 17  1  0
 17 18  2  0
 18 19  1  0
 19 20  2  0
 19 21  1  0
 21 22  1  0
 22 23  1  0
  6 24  1  0
 24 25  2  0
 25  3  1  0
 12  7  1  0
 20 15  1  0
 23 18  1  0
M  END
>  <assay_description>  (196) 
Inhibition of human BSEP expressed in baculovirus transfected fall armyworm Sf21 cell membranes vesicles assessed as reduction in ATP-dependent [3H]-taurocholate transport into vesicles incubated for 5 mins by Topcount based rapid filtration method

>  <molecule_pref_name>  (196) 
PAROXETINE HYDROCHLORIDE

>  <canonical_smiles>  (196) 
Cl.Fc1ccc([C@@H]2CCNC[C@H]2COc2ccc3c(c2)OCO3)cc1

>  <pchembl_value>  (196) 
4.16

>  <standard_type>  (196) 
IC50

>  <standard_relation>  (196) 
=

>  <standard_value>  (196) 
68910.0

>  <standard_units>  (196) 
nM

>  <target_pref_name>  (196) 
Bile salt export pump

>  <target_organism>  (196) 
Homo sapiens

$$$$
CHEMBL75880
     RDKit          2D

 20 22  0  0  0  0  0  0  0  0999 V2000
    1.5000    0.0000    0.0000 C   0  0  0  0  0  0  0  0  0  0  0  0
    0.7500   -1.2990    0.0000 C   0  0  0  0  0  0  0  0  0  0  0  0
   -0.7500   -1.2990    0.0000 C   0  0  0  0  0  0  0  0  0  0  0  0
   -1.5000    0.0000    0.0000 C   0  0  0  0  0  0  0  0  0  0  0  0
   -3.0000    0.0000    0.0000 C   0  0  0  0  0  0  0  0  0  0  0  0
   -3.7500    1.2990    0.0000 C   0  0  0  0  0  0  0  0  0  0  0  0
   -5.2500    1.2990    0.0000 C   0  0  0  0  0  0  0  0  0  0  0  0
   -6.0000    2.5981    0.0000 C   0  0  0  0  0  0  0  0  0  0  0  0
   -7.5000    2.5981    0.0000 C   0  0  0  0  0  0  0  0  0  0  0  0
   -8.2500    1.2990    0.0000 C   0  0  0  0  0  0  0  0  0  0  0  0
   -7.5000    0.0000    0.0000 C   0  0  0  0  0  0  0  0  0  0  0  0
   -6.0000    0.0000    0.0000 N   0  0  0  0  0  0  0  0  0  0  0  0
   -3.7500   -1.2990    0.0000 C   0  0  0  0  0  0  0  0  0  0  0  0
   -5.2500   -1.2990    0.0000 C   0  0  0  0  0  0  0  0  0  0  0  0
   -6.0000   -2.5981    0.0000 C   0  0  0  0  0  0  0  0  0  0  0  0
   -5.2500   -3.8971    0.0000 C   0  0  0  0  0  0  0  0  0  0  0  0
   -3.7500   -3.8971    0.0000 C   0  0  0  0  0  0  0  0  0  0  0  0
   -3.0000   -2.5981    0.0000 C   0  0  0  0  0  0  0  0  0  0  0  0
   -0.7500    1.2990    0.0000 C   0  0  0  0  0  0  0  0  0  0  0  0
    0.7500    1.2990    0.0000 C   0  0  0  0  0  0  0  0  0  0  0  0
  1  2  1  0
  2  3  1  0
  3  4  1  0
  4  5  1  0
  5  6  1  0
  6  7  1  0
  7  8  1  0
  8  9  1  0
  9 10  1  0
 10 11  1  0
 11 12  1  0
  5 13  1  0
 13 14  1  0
 14 15  1  0
 15 16  1  0
 16 17  1  0
 17 18  1  0
  4 19  1  0
 19 20  1  0
 20  1  1  0
 12  7  1  0
 18 13  1  0
M  END
>  <assay_description>  (197) 
Inhibition of human BSEP expressed in baculovirus transfected fall armyworm Sf21 cell membranes vesicles assessed as reduction in ATP-dependent [3H]-taurocholate transport into vesicles incubated for 5 mins by Topcount based rapid filtration method

>  <molecule_pref_name>  (197) 
PERHEXILINE

>  <canonical_smiles>  (197) 
C1CCC(C(CC2CCCCN2)C2CCCCC2)CC1

>  <pchembl_value>  (197) 
4.84

>  <standard_type>  (197) 
IC50

>  <standard_relation>  (197) 
=

>  <standard_value>  (197) 
14360.0

>  <standard_units>  (197) 
nM

>  <target_pref_name>  (197) 
Bile salt export pump

>  <target_organism>  (197) 
Homo sapiens

$$$$
CHEMBL567
     RDKit          2D

 27 30  0  0  0  0  0  0  0  0999 V2000
    8.2500  -11.6913    0.0000 O   0  0  0  0  0  0  0  0  0  0  0  0
    7.5000  -10.3923    0.0000 C   0  0  0  0  0  0  0  0  0  0  0  0
    8.2500   -9.0933    0.0000 C   0  0  0  0  0  0  0  0  0  0  0  0
    7.5000   -7.7942    0.0000 N   0  0  0  0  0  0  0  0  0  0  0  0
    6.0000   -7.7942    0.0000 C   0  0  0  0  0  0  0  0  0  0  0  0
    5.2500   -6.4952    0.0000 C   0  0  0  0  0  0  0  0  0  0  0  0
    6.0000   -5.1962    0.0000 N   0  0  0  0  0  0  0  0  0  0  0  0
    5.2500   -3.8971    0.0000 C   0  0  0  0  0  0  0  0  0  0  0  0
    3.7500   -3.8971    0.0000 C   0  0  0  0  0  0  0  0  0  0  0  0
    3.0000   -2.5981    0.0000 C   0  0  0  0  0  0  0  0  0  0  0  0
    1.5000   -2.5981    0.0000 N   0  0  0  0  0  0  0  0  0  0  0  0
    0.7500   -1.2990    0.0000 C   0  0  0  0  0  0  0  0  0  0  0  0
    1.5000    0.0000    0.0000 C   0  0  0  0  0  0  0  0  0  0  0  0
    0.7500    1.2990    0.0000 C   0  0  0  0  0  0  0  0  0  0  0  0
   -0.7500    1.2990    0.0000 C   0  0  0  0  0  0  0  0  0  0  0  0
   -1.5000    0.0000    0.0000 C   0  0  0  0  0  0  0  0  0  0  0  0
   -0.7500   -1.2990    0.0000 C   0  0  0  0  0  0  0  0  0  0  0  0
   -1.5000   -2.5981    0.0000 S   0  0  0  0  0  0  0  0  0  0  0  0
   -0.7500   -3.8971    0.0000 C   0  0  0  0  0  0  0  0  0  0  0  0
   -1.5000   -5.1962    0.0000 C   0  0  0  0  0  0  0  0  0  0  0  0
   -0.7500   -6.4952    0.0000 C   0  0  0  0  0  0  0  0  0  0  0  0
    0.7500   -6.4952    0.0000 C   0  0  0  0  0  0  0  0  0  0  0  0
    1.5000   -7.7942    0.0000 Cl  0  0  0  0  0  0  0  0  0  0  0  0
    1.5000   -5.1962    0.0000 C   0  0  0  0  0  0  0  0  0  0  0  0
    0.7500   -3.8971    0.0000 C   0  0  0  0  0  0  0  0  0  0  0  0
    7.5000   -5.1962    0.0000 C   0  0  0  0  0  0  0  0  0  0  0  0
    8.2500   -6.4952    0.0000 C   0  0  0  0  0  0  0  0  0  0  0  0
  1  2  1  0
  2  3  1  0
  3  4  1  0
  4  5  1  0
  5  6  1  0
  6  7  1  0
  7  8  1  0
  8  9  1  0
  9 10  1  0
 10 11  1  0
 11 12  1  0
 12 13  2  0
 13 14  1  0
 14 15  2  0
 15 16  1  0
 16 17  2  0
 17 18  1  0
 18 19  1  0
 19 20  2  0
 20 21  1  0
 21 22  2  0
 22 23  1  0
 22 24  1  0
 24 25  2  0
  7 26  1  0
 26 27  1  0
 27  4  1  0
 25 11  1  0
 17 12  1  0
 25 19  1  0
M  END
>  <assay_description>  (198) 
Inhibition of human BSEP expressed in baculovirus transfected fall armyworm Sf21 cell membranes vesicles assessed as reduction in ATP-dependent [3H]-taurocholate transport into vesicles incubated for 5 mins by Topcount based rapid filtration method

>  <molecule_pref_name>  (198) 
PERPHENAZINE

>  <canonical_smiles>  (198) 
OCCN1CCN(CCCN2c3ccccc3Sc3ccc(Cl)cc32)CC1

>  <pchembl_value>  (198) 
4.46

>  <standard_type>  (198) 
IC50

>  <standard_relation>  (198) 
=

>  <standard_value>  (198) 
34840.0

>  <standard_units>  (198) 
nM

>  <target_pref_name>  (198) 
Bile salt export pump

>  <target_organism>  (198) 
Homo sapiens

$$$$
CHEMBL595
     RDKit          2D

 25 27  0  0  0  0  0  0  0  0999 V2000
    3.7500   -1.2990    0.0000 C   0  0  0  0  0  0  0  0  0  0  0  0
    3.0000    0.0000    0.0000 C   0  0  0  0  0  0  0  0  0  0  0  0
    1.5000    0.0000    0.0000 C   0  0  0  0  0  0  0  0  0  0  0  0
    0.7500   -1.2990    0.0000 C   0  0  0  0  0  0  0  0  0  0  0  0
   -0.7500   -1.2990    0.0000 C   0  0  0  0  0  0  0  0  0  0  0  0
   -1.5000    0.0000    0.0000 C   0  0  0  0  0  0  0  0  0  0  0  0
   -3.0000    0.0000    0.0000 C   0  0  0  0  0  0  0  0  0  0  0  0
   -3.7500    1.2990    0.0000 C   0  0  0  0  0  0  0  0  0  0  0  0
   -5.2500    1.2990    0.0000 O   0  0  0  0  0  0  0  0  0  0  0  0
   -6.0000    2.5981    0.0000 C   0  0  0  0  0  0  0  0  0  0  0  0
   -5.2500    3.8971    0.0000 C   0  0  0  0  0  0  0  0  0  0  0  0
   -6.0000    5.1962    0.0000 C   0  0  0  0  0  0  0  0  0  0  0  0
   -7.5000    5.1962    0.0000 C   0  0  0  0  0  0  0  0  0  0  0  0
   -8.2500    6.4952    0.0000 C   0  0  0  0  0  0  0  0  0  0  0  0
   -7.5000    7.7942    0.0000 C   0  0  0  0  0  0  0  0  0  0  0  0
   -8.1101    9.1645    0.0000 S   0  0  0  0  0  0  0  0  0  0  0  0
   -6.9954   10.1682    0.0000 C   0  0  0  0  0  0  0  0  0  0  0  0
   -7.1522   11.6600    0.0000 O   0  0  0  0  0  0  0  0  0  0  0  0
   -5.6963    9.4182    0.0000 N   0  0  0  0  0  0  0  0  0  0  0  0
   -6.0082    7.9510    0.0000 C   0  0  0  0  0  0  0  0  0  0  0  0
   -5.0045    6.8363    0.0000 O   0  0  0  0  0  0  0  0  0  0  0  0
   -8.2500    3.8971    0.0000 C   0  0  0  0  0  0  0  0  0  0  0  0
   -7.5000    2.5981    0.0000 C   0  0  0  0  0  0  0  0  0  0  0  0
   -0.7500    1.2990    0.0000 N   0  0  0  0  0  0  0  0  0  0  0  0
    0.7500    1.2990    0.0000 C   0  0  0  0  0  0  0  0  0  0  0  0
  1  2  1  0
  2  3  1  0
  3  4  2  0
  4  5  1  0
  5  6  2  0
  6  7  1  0
  7  8  1  0
  8  9  1  0
  9 10  1  0
 10 11  2  0
 11 12  1  0
 12 13  2  0
 13 14  1  0
 14 15  1  0
 15 16  1  0
 16 17  1  0
 17 18  2  0
 17 19  1  0
 19 20  1  0
 20 21  2  0
 13 22  1  0
 22 23  2  0
  6 24  1  0
 24 25  2  0
 25  3  1  0
 23 10  1  0
 20 15  1  0
M  END
>  <assay_description>  (199) 
Inhibition of human BSEP expressed in baculovirus transfected fall armyworm Sf21 cell membranes vesicles assessed as reduction in ATP-dependent [3H]-taurocholate transport into vesicles incubated for 5 mins by Topcount based rapid filtration method

>  <molecule_pref_name>  (199) 
PIOGLITAZONE

>  <canonical_smiles>  (199) 
CCc1ccc(CCOc2ccc(CC3SC(=O)NC3=O)cc2)nc1

>  <pchembl_value>  (199) 
6.58

>  <standard_type>  (199) 
IC50

>  <standard_relation>  (199) 
=

>  <standard_value>  (199) 
262.1

>  <standard_units>  (199) 
nM

>  <target_pref_name>  (199) 
Bile salt export pump

>  <target_organism>  (199) 
Homo sapiens

$$$$
CHEMBL976
     RDKit          2D

 23 26  0  0  0  0  0  0  0  0999 V2000
   -6.0000   -5.1962    0.0000 O   0  0  0  0  0  0  0  0  0  0  0  0
   -5.2500   -3.8971    0.0000 C   0  0  0  0  0  0  0  0  0  0  0  0
   -6.0000   -2.5981    0.0000 C   0  0  0  0  0  0  0  0  0  0  0  0
   -5.2500   -1.2990    0.0000 C   0  0  0  0  0  0  0  0  0  0  0  0
   -6.0000    0.0000    0.0000 C   0  0  0  0  0  0  0  0  0  0  0  0
   -7.5000    0.0000    0.0000 C   0  0  0  0  0  0  0  0  0  0  0  0
   -8.2500   -1.2990    0.0000 C   0  0  0  0  0  0  0  0  0  0  0  0
   -7.5000   -2.5981    0.0000 C   0  0  0  0  0  0  0  0  0  0  0  0
   -3.7500   -3.8971    0.0000 N   0  0  0  0  0  0  0  0  0  0  0  0
   -3.0000   -5.1962    0.0000 C   0  0  0  0  0  0  0  0  0  0  0  0
   -1.5000   -5.1962    0.0000 C   0  0  0  0  0  0  0  0  0  0  0  0
   -0.7500   -6.4952    0.0000 O   0  0  0  0  0  0  0  0  0  0  0  0
   -0.7500   -3.8971    0.0000 N   0  0  0  0  0  0  0  0  0  0  0  0
    0.7500   -3.8971    0.0000 C   0  0  0  0  0  0  0  0  0  0  0  0
    1.5000   -2.5981    0.0000 C   0  0  0  0  0  0  0  0  0  0  0  0
    0.7500   -1.2990    0.0000 C   0  0  0  0  0  0  0  0  0  0  0  0
    1.5000    0.0000    0.0000 C   0  0  0  0  0  0  0  0  0  0  0  0
    0.7500    1.2990    0.0000 C   0  0  0  0  0  0  0  0  0  0  0  0
   -0.7500    1.2990    0.0000 C   0  0  0  0  0  0  0  0  0  0  0  0
   -1.5000    0.0000    0.0000 C   0  0  0  0  0  0  0  0  0  0  0  0
   -0.7500   -1.2990    0.0000 C   0  0  0  0  0  0  0  0  0  0  0  0
   -1.5000   -2.5981    0.0000 C   0  0  0  0  0  0  0  0  0  0  0  0
   -3.0000   -2.5981    0.0000 C   0  0  0  0  0  0  0  0  0  0  0  0
  1  2  2  0
  2  3  1  0
  3  4  1  0
  4  5  1  0
  5  6  1  0
  6  7  1  0
  7  8  1  0
  2  9  1  0
  9 10  1  0
 10 11  1  0
 11 12  2  0
 11 13  1  0
 13 14  1  0
 14 15  1  0
 15 16  1  0
 16 17  2  0
 17 18  1  0
 18 19  2  0
 19 20  1  0
 20 21  2  0
 21 22  1  0
 22 23  1  0
  8  3  1  0
 23  9  1  0
 22 13  1  0
 21 16  1  0
M  END
>  <assay_description>  (200) 
Inhibition of human BSEP expressed in baculovirus transfected fall armyworm Sf21 cell membranes vesicles assessed as reduction in ATP-dependent [3H]-taurocholate transport into vesicles incubated for 5 mins by Topcount based rapid filtration method

>  <molecule_pref_name>  (200) 
PRAZIQUANTEL

>  <canonical_smiles>  (200) 
O=C(C1CCCCC1)N1CC(=O)N2CCc3ccccc3C2C1

>  <pchembl_value>  (200) 
4.22

>  <standard_type>  (200) 
IC50

>  <standard_relation>  (200) 
=

>  <standard_value>  (200) 
60270.0

>  <standard_units>  (200) 
nM

>  <target_pref_name>  (200) 
Bile salt export pump

>  <target_organism>  (200) 
Homo sapiens

$$$$
CHEMBL506
     RDKit          2D

 19 20  0  0  0  0  0  0  0  0999 V2000
   -3.0000   -5.1962    0.0000 C   0  0  0  0  0  0  0  0  0  0  0  0
   -1.5000   -5.1962    0.0000 O   0  0  0  0  0  0  0  0  0  0  0  0
   -0.7500   -3.8971    0.0000 C   0  0  0  0  0  0  0  0  0  0  0  0
    0.7500   -3.8971    0.0000 C   0  0  0  0  0  0  0  0  0  0  0  0
    1.5000   -2.5981    0.0000 C   0  0  0  0  0  0  0  0  0  0  0  0
    3.0000   -2.5981    0.0000 N   0  0  0  0  0  0  0  0  0  0  0  0
    3.7500   -3.8971    0.0000 C   0  0  0  0  0  0  0  0  0  0  0  0
    5.2500   -3.8971    0.0000 C   0  0  0  0  0  0  0  0  0  0  0  0
    3.0000   -5.1962    0.0000 C   0  0  0  0  0  0  0  0  0  0  0  0
    3.7500   -6.4952    0.0000 C   0  0  0  0  0  0  0  0  0  0  0  0
    3.0000   -7.7942    0.0000 C   0  0  0  0  0  0  0  0  0  0  0  0
    3.7500   -9.0933    0.0000 N   0  0  0  0  0  0  0  0  0  0  0  0
    0.7500   -1.2990    0.0000 C   0  0  0  0  0  0  0  0  0  0  0  0
    1.5000    0.0000    0.0000 N   0  0  0  0  0  0  0  0  0  0  0  0
    0.7500    1.2990    0.0000 C   0  0  0  0  0  0  0  0  0  0  0  0
   -0.7500    1.2990    0.0000 C   0  0  0  0  0  0  0  0  0  0  0  0
   -1.5000    0.0000    0.0000 C   0  0  0  0  0  0  0  0  0  0  0  0
   -0.7500   -1.2990    0.0000 C   0  0  0  0  0  0  0  0  0  0  0  0
   -1.5000   -2.5981    0.0000 C   0  0  0  0  0  0  0  0  0  0  0  0
  1  2  1  0
  2  3  1  0
  3  4  2  0
  4  5  1  0
  5  6  1  0
  6  7  1  0
  7  8  1  0
  7  9  1  0
  9 10  1  0
 10 11  1  0
 11 12  1  0
  5 13  2  0
 13 14  1  0
 14 15  2  0
 15 16  1  0
 16 17  2  0
 17 18  1  0
 18 19  2  0
 19  3  1  0
 18 13  1  0
M  END
>  <assay_description>  (201) 
Inhibition of human BSEP expressed in baculovirus transfected fall armyworm Sf21 cell membranes vesicles assessed as reduction in ATP-dependent [3H]-taurocholate transport into vesicles incubated for 5 mins by Topcount based rapid filtration method

>  <molecule_pref_name>  (201) 
PRIMAQUINE

>  <canonical_smiles>  (201) 
COc1cc(NC(C)CCCN)c2ncccc2c1

>  <pchembl_value>  (201) 
4.28

>  <standard_type>  (201) 
IC50

>  <standard_relation>  (201) 
=

>  <standard_value>  (201) 
53120.0

>  <standard_units>  (201) 
nM

>  <target_pref_name>  (201) 
Bile salt export pump

>  <target_organism>  (201) 
Homo sapiens

$$$$
CHEMBL631
     RDKit          2D

 25 26  0  0  0  0  0  0  0  0999 V2000
   10.5000   -5.1962    0.0000 C   0  0  0  0  0  0  0  0  0  0  0  0
    9.7500   -3.8971    0.0000 C   0  0  0  0  0  0  0  0  0  0  0  0
    8.2500   -3.8971    0.0000 C   0  0  0  0  0  0  0  0  0  0  0  0
    7.5000   -2.5981    0.0000 N   0  0  0  0  0  0  0  0  0  0  0  0
    6.0000   -2.5981    0.0000 C   0  0  0  0  0  0  0  0  0  0  0  0
    5.2500   -1.2990    0.0000 C   0  0  0  0  0  0  0  0  0  0  0  0
    6.0000    0.0000    0.0000 O   0  0  0  0  0  0  0  0  0  0  0  0
    3.7500   -1.2990    0.0000 C   0  0  0  0  0  0  0  0  0  0  0  0
    3.0000    0.0000    0.0000 O   0  0  0  0  0  0  0  0  0  0  0  0
    1.5000    0.0000    0.0000 C   0  0  0  0  0  0  0  0  0  0  0  0
    0.7500   -1.2990    0.0000 C   0  0  0  0  0  0  0  0  0  0  0  0
   -0.7500   -1.2990    0.0000 C   0  0  0  0  0  0  0  0  0  0  0  0
   -1.5000    0.0000    0.0000 C   0  0  0  0  0  0  0  0  0  0  0  0
   -0.7500    1.2990    0.0000 C   0  0  0  0  0  0  0  0  0  0  0  0
    0.7500    1.2990    0.0000 C   0  0  0  0  0  0  0  0  0  0  0  0
    1.5000    2.5981    0.0000 C   0  0  0  0  0  0  0  0  0  0  0  0
    0.7500    3.8971    0.0000 O   0  0  0  0  0  0  0  0  0  0  0  0
    3.0000    2.5981    0.0000 C   0  0  0  0  0  0  0  0  0  0  0  0
    3.7500    3.8971    0.0000 C   0  0  0  0  0  0  0  0  0  0  0  0
    5.2500    3.8971    0.0000 C   0  0  0  0  0  0  0  0  0  0  0  0
    6.0000    2.5981    0.0000 C   0  0  0  0  0  0  0  0  0  0  0  0
    7.5000    2.5981    0.0000 C   0  0  0  0  0  0  0  0  0  0  0  0
    8.2500    3.8971    0.0000 C   0  0  0  0  0  0  0  0  0  0  0  0
    7.5000    5.1962    0.0000 C   0  0  0  0  0  0  0  0  0  0  0  0
    6.0000    5.1962    0.0000 C   0  0  0  0  0  0  0  0  0  0  0  0
  1  2  1  0
  2  3  1  0
  3  4  1  0
  4  5  1  0
  5  6  1  0
  6  7  1  0
  6  8  1  0
  8  9  1  0
  9 10  1  0
 10 11  2  0
 11 12  1  0
 12 13  2  0
 13 14  1  0
 14 15  2  0
 15 16  1  0
 16 17  2  0
 16 18  1  0
 18 19  1  0
 19 20  1  0
 20 21  2  0
 21 22  1  0
 22 23  2  0
 23 24  1  0
 24 25  2  0
 15 10  1  0
 25 20  1  0
M  END
>  <assay_description>  (202) 
Inhibition of human BSEP expressed in baculovirus transfected fall armyworm Sf21 cell membranes vesicles assessed as reduction in ATP-dependent [3H]-taurocholate transport into vesicles incubated for 5 mins by Topcount based rapid filtration method

>  <molecule_pref_name>  (202) 
PROPAFENONE

>  <canonical_smiles>  (202) 
CCCNCC(O)COc1ccccc1C(=O)CCc1ccccc1

>  <pchembl_value>  (202) 
4.27

>  <standard_type>  (202) 
IC50

>  <standard_relation>  (202) 
=

>  <standard_value>  (202) 
53700.0

>  <standard_units>  (202) 
nM

>  <target_pref_name>  (202) 
Bile salt export pump

>  <target_organism>  (202) 
Homo sapiens

$$$$
CHEMBL42641
     RDKit          2D

 22 24  0  0  0  0  0  0  0  0999 V2000
   -5.2500   -1.2990    0.0000 C   0  0  0  0  0  0  0  0  0  0  0  0
   -3.7500   -1.2990    0.0000 C   0  0  0  0  0  0  0  0  0  0  0  0
   -3.0000   -2.5981    0.0000 C   0  0  0  0  0  0  0  0  0  0  0  0
   -1.5000   -2.5981    0.0000 C   0  0  0  0  0  0  0  0  0  0  0  0
   -0.7500   -1.2990    0.0000 C   0  0  0  0  0  0  0  0  0  0  0  0
    0.7500   -1.2990    0.0000 C   0  0  0  0  0  0  0  0  0  0  0  0
    1.5000   -2.5981    0.0000 C   0  0  0  0  0  0  0  0  0  0  0  0
    3.0000   -2.5981    0.0000 O   0  0  0  0  0  0  0  0  0  0  0  0
    0.7500   -3.8971    0.0000 C   0  0  0  0  0  0  0  0  0  0  0  0
    1.5000   -5.1962    0.0000 C   0  0  0  0  0  0  0  0  0  0  0  0
    3.0000   -5.1962    0.0000 O   0  0  0  0  0  0  0  0  0  0  0  0
    0.7500   -6.4952    0.0000 C   0  0  0  0  0  0  0  0  0  0  0  0
   -0.7500   -6.4952    0.0000 C   0  0  0  0  0  0  0  0  0  0  0  0
   -1.5000   -7.7942    0.0000 C   0  0  0  0  0  0  0  0  0  0  0  0
   -0.7500   -9.0933    0.0000 O   0  0  0  0  0  0  0  0  0  0  0  0
   -3.0000   -7.7942    0.0000 O   0  0  0  0  0  0  0  0  0  0  0  0
   -1.5000   -5.1962    0.0000 O   0  0  0  0  0  0  0  0  0  0  0  0
   -0.7500   -3.8971    0.0000 C   0  0  0  0  0  0  0  0  0  0  0  0
    1.5000    0.0000    0.0000 C   0  0  0  0  0  0  0  0  0  0  0  0
    0.7500    1.2990    0.0000 C   0  0  0  0  0  0  0  0  0  0  0  0
   -0.7500    1.2990    0.0000 C   0  0  0  0  0  0  0  0  0  0  0  0
   -1.5000    0.0000    0.0000 C   0  0  0  0  0  0  0  0  0  0  0  0
  1  2  1  0
  2  3  1  0
  3  4  1  0
  4  5  2  0
  5  6  1  0
  6  7  2  0
  7  8  1  0
  7  9  1  0
  9 10  1  0
 10 11  2  0
 10 12  1  0
 12 13  2  0
 13 14  1  0
 14 15  2  0
 14 16  1  0
 13 17  1  0
 17 18  1  0
  6 19  1  0
 19 20  1  0
 20 21  1  0
 21 22  1  0
 18  4  1  0
 22  5  1  0
 18  9  2  0
M  END
>  <assay_description>  (203) 
Inhibition of human BSEP expressed in baculovirus transfected fall armyworm Sf21 cell membranes vesicles assessed as reduction in ATP-dependent [3H]-taurocholate transport into vesicles incubated for 5 mins by Topcount based rapid filtration method

>  <molecule_pref_name>  (203) 
PROXICROMIL

>  <canonical_smiles>  (203) 
CCCc1c2c(c(O)c3c(=O)cc(C(=O)O)oc13)CCCC2

>  <pchembl_value>  (203) 
4.52

>  <standard_type>  (203) 
IC50

>  <standard_relation>  (203) 
=

>  <standard_value>  (203) 
30000.0

>  <standard_units>  (203) 
nM

>  <target_pref_name>  (203) 
Bile salt export pump

>  <target_organism>  (203) 
Homo sapiens

$$$$
CHEMBL361812
     RDKit          2D

 29 32  0  0  0  0  0  0  0  0999 V2000
   -5.4933   -4.1162    0.0000 O   0  0  0  0  0  0  0  0  0  0  0  0
   -5.1814   -2.6490    0.0000 C   0  0  0  0  0  0  0  0  0  0  0  0
   -6.2961   -1.6453    0.0000 O   0  0  0  0  0  0  0  0  0  0  0  0
   -3.7548   -2.1855    0.0000 C   0  0  0  0  0  0  0  0  0  0  0  0
   -2.6401   -3.1891    0.0000 C   0  0  0  0  0  0  0  0  0  0  0  0
   -1.2135   -2.7256    0.0000 N   0  0  0  0  0  0  0  0  0  0  0  0
   -0.0000   -3.6073    0.0000 C   0  0  0  0  0  0  0  0  0  0  0  0
    1.2135   -2.7256    0.0000 C   0  0  0  0  0  0  0  0  0  0  0  0
    0.7500   -1.2990    0.0000 C   0  0  0  0  0  0  0  0  0  0  0  0
    1.5000    0.0000    0.0000 C   0  0  0  0  0  0  0  0  0  0  0  0
    0.7500    1.2990    0.0000 C   0  0  0  0  0  0  0  0  0  0  0  0
   -0.7500    1.2990    0.0000 C   0  0  0  0  0  0  0  0  0  0  0  0
   -1.5000    0.0000    0.0000 C   0  0  0  0  0  0  0  0  0  0  0  0
   -0.7500   -1.2990    0.0000 C   0  0  0  0  0  0  0  0  0  0  0  0
    2.5838   -3.3357    0.0000 C   0  0  0  0  0  0  0  0  0  0  0  0
    2.7406   -4.8275    0.0000 C   0  0  0  0  0  0  0  0  0  0  0  0
    4.1110   -5.4376    0.0000 N   0  0  0  0  0  0  0  0  0  0  0  0
    4.2677   -6.9294    0.0000 S   0  0  0  0  0  0  0  0  0  0  0  0
    2.7760   -7.0862    0.0000 O   0  0  0  0  0  0  0  0  0  0  0  0
    5.7595   -6.7726    0.0000 O   0  0  0  0  0  0  0  0  0  0  0  0
    4.4245   -8.4212    0.0000 C   0  0  0  0  0  0  0  0  0  0  0  0
    3.2110   -9.3029    0.0000 C   0  0  0  0  0  0  0  0  0  0  0  0
    3.3678  -10.7946    0.0000 C   0  0  0  0  0  0  0  0  0  0  0  0
    4.7381  -11.4047    0.0000 C   0  0  0  0  0  0  0  0  0  0  0  0
    4.8949  -12.8965    0.0000 F   0  0  0  0  0  0  0  0  0  0  0  0
    5.9517  -10.5231    0.0000 C   0  0  0  0  0  0  0  0  0  0  0  0
    5.7949   -9.0313    0.0000 C   0  0  0  0  0  0  0  0  0  0  0  0
    1.5271   -5.7092    0.0000 C   0  0  0  0  0  0  0  0  0  0  0  0
    0.1568   -5.0991    0.0000 C   0  0  0  0  0  0  0  0  0  0  0  0
  1  2  2  0
  2  3  1  0
  2  4  1  0
  4  5  1  0
  5  6  1  0
  6  7  1  0
  7  8  2  0
  8  9  1  0
  9 10  2  0
 10 11  1  0
 11 12  2  0
 12 13  1  0
 13 14  2  0
  8 15  1  0
 15 16  1  0
 16 17  1  6
 17 18  1  0
 18 19  2  0
 18 20  2  0
 18 21  1  0
 21 22  2  0
 22 23  1  0
 23 24  2  0
 24 25  1  0
 24 26  1  0
 26 27  2  0
 16 28  1  0
 28 29  1  0
 14  6  1  0
 27 21  1  0
 29  7  1  0
 14  9  1  0
M  END
>  <assay_description>  (204) 
Inhibition of human BSEP expressed in baculovirus transfected fall armyworm Sf21 cell membranes vesicles assessed as reduction in ATP-dependent [3H]-taurocholate transport into vesicles incubated for 5 mins by Topcount based rapid filtration method

>  <molecule_pref_name>  (204) 
RAMATROBAN

>  <canonical_smiles>  (204) 
O=C(O)CCn1c2c(c3ccccc31)C[C@H](NS(=O)(=O)c1ccc(F)cc1)CC2

>  <pchembl_value>  (204) 
4.21

>  <standard_type>  (204) 
IC50

>  <standard_relation>  (204) 
=

>  <standard_value>  (204) 
62400.0

>  <standard_units>  (204) 
nM

>  <target_pref_name>  (204) 
Bile salt export pump

>  <target_organism>  (204) 
Homo sapiens

$$$$
CHEMBL1218
     RDKit          2D

 19 21  0  0  0  0  0  0  0  0999 V2000
    9.7567    4.2455    0.0000 C   0  0  0  0  0  0  0  0  0  0  0  0
    8.5432    3.3638    0.0000 C   0  0  0  0  0  0  0  0  0  0  0  0
    7.1729    3.9739    0.0000 C   0  0  0  0  0  0  0  0  0  0  0  0
    7.0161    5.4657    0.0000 O   0  0  0  0  0  0  0  0  0  0  0  0
    5.9594    3.0922    0.0000 N   0  0  0  0  0  0  0  0  0  0  0  0
    4.5890    3.7023    0.0000 C   0  0  0  0  0  0  0  0  0  0  0  0
    3.3755    2.8206    0.0000 C   0  0  0  0  0  0  0  0  0  0  0  0
    2.0052    3.4307    0.0000 C   0  0  0  0  0  0  0  0  0  0  0  0
    1.6933    4.8980    0.0000 C   0  0  0  0  0  0  0  0  0  0  0  0
    0.2016    5.0548    0.0000 C   0  0  0  0  0  0  0  0  0  0  0  0
   -0.4086    3.6844    0.0000 C   0  0  0  0  0  0  0  0  0  0  0  0
   -1.8351    3.2209    0.0000 C   0  0  0  0  0  0  0  0  0  0  0  0
   -2.1470    1.7537    0.0000 C   0  0  0  0  0  0  0  0  0  0  0  0
   -1.0323    0.7500    0.0000 C   0  0  0  0  0  0  0  0  0  0  0  0
    0.3943    1.2135    0.0000 C   0  0  0  0  0  0  0  0  0  0  0  0
    0.7062    2.6807    0.0000 C   0  0  0  0  0  0  0  0  0  0  0  0
    1.2760    0.0000    0.0000 C   0  0  0  0  0  0  0  0  0  0  0  0
    0.3943   -1.2135    0.0000 C   0  0  0  0  0  0  0  0  0  0  0  0
   -1.0323   -0.7500    0.0000 O   0  0  0  0  0  0  0  0  0  0  0  0
  1  2  1  0
  2  3  1  0
  3  4  2  0
  3  5  1  0
  5  6  1  0
  6  7  1  0
  8  7  1  1
  8  9  1  0
  9 10  1  0
 10 11  1  0
 11 12  2  0
 12 13  1  0
 13 14  2  0
 14 15  1  0
 15 16  2  0
 15 17  1  0
 17 18  1  0
 18 19  1  0
 16  8  1  0
 16 11  1  0
 19 14  1  0
M  END
>  <assay_description>  (205) 
Inhibition of human BSEP expressed in baculovirus transfected fall armyworm Sf21 cell membranes vesicles assessed as reduction in ATP-dependent [3H]-taurocholate transport into vesicles incubated for 5 mins by Topcount based rapid filtration method

>  <molecule_pref_name>  (205) 
RAMELTEON

>  <canonical_smiles>  (205) 
CCC(=O)NCC[C@@H]1CCc2ccc3c(c21)CCO3

>  <pchembl_value>  (205) 
4.07

>  <standard_type>  (205) 
IC50

>  <standard_relation>  (205) 
=

>  <standard_value>  (205) 
85000.0

>  <standard_units>  (205) 
nM

>  <target_pref_name>  (205) 
Bile salt export pump

>  <target_organism>  (205) 
Homo sapiens

$$$$
CHEMBL440498
     RDKit          2D

 28 30  0  0  0  0  0  0  0  0999 V2000
    2.0800   -5.8874    0.0000 O   0  0  0  0  0  0  0  0  0  0  0  0
    3.4895   -5.3743    0.0000 C   0  0  0  0  0  0  0  0  0  0  0  0
    4.6386   -6.3385    0.0000 N   0  0  0  0  0  0  0  0  0  0  0  0
    4.3781   -7.8157    0.0000 O   0  0  0  0  0  0  0  0  0  0  0  0
    3.7500   -3.8971    0.0000 C   0  0  0  0  0  0  0  0  0  0  0  0
    2.2500   -3.8971    0.0000 C   0  0  0  0  0  0  0  0  0  0  0  0
    1.5000   -2.5981    0.0000 S   0  0  0  0  0  0  0  0  0  0  0  0
    2.7990   -1.8481    0.0000 O   0  0  0  0  0  0  0  0  0  0  0  0
    0.2010   -3.3481    0.0000 O   0  0  0  0  0  0  0  0  0  0  0  0
    0.7500   -1.2990    0.0000 C   0  0  0  0  0  0  0  0  0  0  0  0
    1.5000    0.0000    0.0000 C   0  0  0  0  0  0  0  0  0  0  0  0
    0.7500    1.2990    0.0000 C   0  0  0  0  0  0  0  0  0  0  0  0
   -0.7500    1.2990    0.0000 C   0  0  0  0  0  0  0  0  0  0  0  0
   -1.5000    2.5981    0.0000 O   0  0  0  0  0  0  0  0  0  0  0  0
   -0.7500    3.8971    0.0000 C   0  0  0  0  0  0  0  0  0  0  0  0
    0.7500    3.8971    0.0000 C   0  0  0  0  0  0  0  0  0  0  0  0
    1.5000    5.1962    0.0000 C   0  0  0  0  0  0  0  0  0  0  0  0
    0.7500    6.4952    0.0000 C   0  0  0  0  0  0  0  0  0  0  0  0
    1.5000    7.7942    0.0000 Cl  0  0  0  0  0  0  0  0  0  0  0  0
   -0.7500    6.4952    0.0000 C   0  0  0  0  0  0  0  0  0  0  0  0
   -1.5000    5.1962    0.0000 C   0  0  0  0  0  0  0  0  0  0  0  0
   -1.5000    0.0000    0.0000 C   0  0  0  0  0  0  0  0  0  0  0  0
   -0.7500   -1.2990    0.0000 C   0  0  0  0  0  0  0  0  0  0  0  0
    3.4895   -2.4199    0.0000 C   0  0  0  0  0  0  0  0  0  0  0  0
    4.6386   -1.4557    0.0000 C   0  0  0  0  0  0  0  0  0  0  0  0
    6.0481   -1.9688    0.0000 O   0  0  0  0  0  0  0  0  0  0  0  0
    6.3086   -3.4460    0.0000 C   0  0  0  0  0  0  0  0  0  0  0  0
    5.1595   -4.4101    0.0000 C   0  0  0  0  0  0  0  0  0  0  0  0
  1  2  2  0
  2  3  1  0
  3  4  1  0
  2  5  1  0
  5  6  1  0
  6  7  1  0
  7  8  2  0
  7  9  2  0
  7 10  1  0
 10 11  2  0
 11 12  1  0
 12 13  2  0
 13 14  1  0
 14 15  1  0
 15 16  2  0
 16 17  1  0
 17 18  2  0
 18 19  1  0
 18 20  1  0
 20 21  2  0
 13 22  1  0
 22 23  2  0
  5 24  1  0
 24 25  1  0
 25 26  1  0
 26 27  1  0
 27 28  1  0
 28  5  1  0
 23 10  1  0
 21 15  1  0
M  END
>  <assay_description>  (206) 
Inhibition of human BSEP expressed in baculovirus transfected fall armyworm Sf21 cell membranes vesicles assessed as reduction in ATP-dependent [3H]-taurocholate transport into vesicles incubated for 5 mins by Topcount based rapid filtration method

>  <molecule_pref_name>  (206) 
CTS-1027

>  <canonical_smiles>  (206) 
O=C(NO)C1(CS(=O)(=O)c2ccc(Oc3ccc(Cl)cc3)cc2)CCOCC1

>  <pchembl_value>  (206) 
4.63

>  <standard_type>  (206) 
IC50

>  <standard_relation>  (206) 
=

>  <standard_value>  (206) 
23360.0

>  <standard_units>  (206) 
nM

>  <target_pref_name>  (206) 
Bile salt export pump

>  <target_organism>  (206) 
Homo sapiens

$$$$
CHEMBL122
     RDKit          2D

 22 24  0  0  0  0  0  0  0  0999 V2000
    4.5000    0.0000    0.0000 C   0  0  0  0  0  0  0  0  0  0  0  0
    3.0000    0.0000    0.0000 S   0  0  0  0  0  0  0  0  0  0  0  0
    3.0000    1.5000    0.0000 O   0  0  0  0  0  0  0  0  0  0  0  0
    3.0000   -1.5000    0.0000 O   0  0  0  0  0  0  0  0  0  0  0  0
    1.5000    0.0000    0.0000 C   0  0  0  0  0  0  0  0  0  0  0  0
    0.7500   -1.2990    0.0000 C   0  0  0  0  0  0  0  0  0  0  0  0
   -0.7500   -1.2990    0.0000 C   0  0  0  0  0  0  0  0  0  0  0  0
   -1.5000    0.0000    0.0000 C   0  0  0  0  0  0  0  0  0  0  0  0
   -3.0000    0.0000    0.0000 C   0  0  0  0  0  0  0  0  0  0  0  0
   -3.8817   -1.2135    0.0000 C   0  0  0  0  0  0  0  0  0  0  0  0
   -3.4182   -2.6401    0.0000 C   0  0  0  0  0  0  0  0  0  0  0  0
   -4.4218   -3.7548    0.0000 C   0  0  0  0  0  0  0  0  0  0  0  0
   -3.9583   -5.1814    0.0000 C   0  0  0  0  0  0  0  0  0  0  0  0
   -2.4911   -5.4933    0.0000 C   0  0  0  0  0  0  0  0  0  0  0  0
   -1.4874   -4.3786    0.0000 C   0  0  0  0  0  0  0  0  0  0  0  0
   -1.9509   -2.9520    0.0000 C   0  0  0  0  0  0  0  0  0  0  0  0
   -5.3083   -0.7500    0.0000 C   0  0  0  0  0  0  0  0  0  0  0  0
   -6.5218   -1.6317    0.0000 O   0  0  0  0  0  0  0  0  0  0  0  0
   -5.3083    0.7500    0.0000 O   0  0  0  0  0  0  0  0  0  0  0  0
   -3.8817    1.2135    0.0000 C   0  0  0  0  0  0  0  0  0  0  0  0
   -0.7500    1.2990    0.0000 C   0  0  0  0  0  0  0  0  0  0  0  0
    0.7500    1.2990    0.0000 C   0  0  0  0  0  0  0  0  0  0  0  0
  1  2  1  0
  2  3  2  0
  2  4  2  0
  2  5  1  0
  5  6  2  0
  6  7  1  0
  7  8  2  0
  8  9  1  0
  9 10  2  0
 10 11  1  0
 11 12  2  0
 12 13  1  0
 13 14  2  0
 14 15  1  0
 15 16  2  0
 10 17  1  0
 17 18  2  0
 17 19  1  0
 19 20  1  0
  8 21  1  0
 21 22  2  0
 22  5  1  0
 20  9  1  0
 16 11  1  0
M  END
>  <assay_description>  (207) 
Inhibition of human BSEP expressed in baculovirus transfected fall armyworm Sf21 cell membranes vesicles assessed as reduction in ATP-dependent [3H]-taurocholate transport into vesicles incubated for 5 mins by Topcount based rapid filtration method

>  <molecule_pref_name>  (207) 
ROFECOXIB

>  <canonical_smiles>  (207) 
CS(=O)(=O)c1ccc(C2=C(c3ccccc3)C(=O)OC2)cc1

>  <pchembl_value>  (207) 
4.02

>  <standard_type>  (207) 
IC50

>  <standard_relation>  (207) 
=

>  <standard_value>  (207) 
95360.0

>  <standard_units>  (207) 
nM

>  <target_pref_name>  (207) 
Bile salt export pump

>  <target_organism>  (207) 
Homo sapiens

$$$$
CHEMBL121
     RDKit          2D

 25 27  0  0  0  0  0  0  0  0999 V2000
    1.5000   -7.7942    0.0000 C   0  0  0  0  0  0  0  0  0  0  0  0
    0.7500   -6.4952    0.0000 N   0  0  0  0  0  0  0  0  0  0  0  0
    1.5000   -5.1962    0.0000 C   0  0  0  0  0  0  0  0  0  0  0  0
    0.7500   -3.8971    0.0000 C   0  0  0  0  0  0  0  0  0  0  0  0
    1.5000   -2.5981    0.0000 O   0  0  0  0  0  0  0  0  0  0  0  0
    0.7500   -1.2990    0.0000 C   0  0  0  0  0  0  0  0  0  0  0  0
    1.5000    0.0000    0.0000 C   0  0  0  0  0  0  0  0  0  0  0  0
    0.7500    1.2990    0.0000 C   0  0  0  0  0  0  0  0  0  0  0  0
   -0.7500    1.2990    0.0000 C   0  0  0  0  0  0  0  0  0  0  0  0
   -1.5000    2.5981    0.0000 C   0  0  0  0  0  0  0  0  0  0  0  0
   -0.7500    3.8971    0.0000 C   0  0  0  0  0  0  0  0  0  0  0  0
   -1.3601    5.2674    0.0000 S   0  0  0  0  0  0  0  0  0  0  0  0
   -0.2454    6.2711    0.0000 C   0  0  0  0  0  0  0  0  0  0  0  0
   -0.4022    7.7629    0.0000 O   0  0  0  0  0  0  0  0  0  0  0  0
    1.0537    5.5211    0.0000 N   0  0  0  0  0  0  0  0  0  0  0  0
    0.7418    4.0539    0.0000 C   0  0  0  0  0  0  0  0  0  0  0  0
    1.7455    2.9392    0.0000 O   0  0  0  0  0  0  0  0  0  0  0  0
   -1.5000    0.0000    0.0000 C   0  0  0  0  0  0  0  0  0  0  0  0
   -0.7500   -1.2990    0.0000 C   0  0  0  0  0  0  0  0  0  0  0  0
   -0.7500   -6.4952    0.0000 C   0  0  0  0  0  0  0  0  0  0  0  0
   -1.5000   -5.1962    0.0000 C   0  0  0  0  0  0  0  0  0  0  0  0
   -3.0000   -5.1962    0.0000 C   0  0  0  0  0  0  0  0  0  0  0  0
   -3.7500   -6.4952    0.0000 C   0  0  0  0  0  0  0  0  0  0  0  0
   -3.0000   -7.7942    0.0000 C   0  0  0  0  0  0  0  0  0  0  0  0
   -1.5000   -7.7942    0.0000 N   0  0  0  0  0  0  0  0  0  0  0  0
  1  2  1  0
  2  3  1  0
  3  4  1  0
  4  5  1  0
  5  6  1  0
  6  7  2  0
  7  8  1  0
  8  9  2  0
  9 10  1  0
 10 11  1  0
 11 12  1  0
 12 13  1  0
 13 14  2  0
 13 15  1  0
 15 16  1  0
 16 17  2  0
  9 18  1  0
 18 19  2  0
  2 20  1  0
 20 21  2  0
 21 22  1  0
 22 23  2  0
 23 24  1  0
 24 25  2  0
 19  6  1  0
 25 20  1  0
 16 11  1  0
M  END
>  <assay_description>  (208) 
Inhibition of human BSEP expressed in baculovirus transfected fall armyworm Sf21 cell membranes vesicles assessed as reduction in ATP-dependent [3H]-taurocholate transport into vesicles incubated for 5 mins by Topcount based rapid filtration method

>  <molecule_pref_name>  (208) 
ROSIGLITAZONE

>  <canonical_smiles>  (208) 
CN(CCOc1ccc(CC2SC(=O)NC2=O)cc1)c1ccccn1

>  <pchembl_value>  (208) 
5.20

>  <standard_type>  (208) 
IC50

>  <standard_relation>  (208) 
=

>  <standard_value>  (208) 
6362.0

>  <standard_units>  (208) 
nM

>  <target_pref_name>  (208) 
Bile salt export pump

>  <target_organism>  (208) 
Homo sapiens

$$$$
CHEMBL809
     RDKit          2D

 20 22  0  0  0  0  0  0  0  0999 V2000
   -3.7500   -3.8971    0.0000 C   0  0  0  0  0  0  0  0  0  0  0  0
   -3.0000   -2.5981    0.0000 N   0  0  0  0  0  0  0  0  0  0  0  0
   -1.5000   -2.5981    0.0000 C   0  0  0  0  0  0  0  0  0  0  0  0
   -0.7500   -3.8971    0.0000 C   0  0  0  0  0  0  0  0  0  0  0  0
    0.7500   -3.8971    0.0000 C   0  0  0  0  0  0  0  0  0  0  0  0
    1.5000   -2.5981    0.0000 C   0  0  0  0  0  0  0  0  0  0  0  0
    3.0000   -2.5981    0.0000 C   0  0  0  0  0  0  0  0  0  0  0  0
    3.7500   -3.8971    0.0000 C   0  0  0  0  0  0  0  0  0  0  0  0
    5.2500   -3.8971    0.0000 C   0  0  0  0  0  0  0  0  0  0  0  0
    6.0000   -2.5981    0.0000 C   0  0  0  0  0  0  0  0  0  0  0  0
    7.5000   -2.5981    0.0000 Cl  0  0  0  0  0  0  0  0  0  0  0  0
    5.2500   -1.2990    0.0000 C   0  0  0  0  0  0  0  0  0  0  0  0
    6.0000    0.0000    0.0000 Cl  0  0  0  0  0  0  0  0  0  0  0  0
    3.7500   -1.2990    0.0000 C   0  0  0  0  0  0  0  0  0  0  0  0
    0.7500   -1.2990    0.0000 C   0  0  0  0  0  0  0  0  0  0  0  0
    1.5000    0.0000    0.0000 C   0  0  0  0  0  0  0  0  0  0  0  0
    0.7500    1.2990    0.0000 C   0  0  0  0  0  0  0  0  0  0  0  0
   -0.7500    1.2990    0.0000 C   0  0  0  0  0  0  0  0  0  0  0  0
   -1.5000    0.0000    0.0000 C   0  0  0  0  0  0  0  0  0  0  0  0
   -0.7500   -1.2990    0.0000 C   0  0  0  0  0  0  0  0  0  0  0  0
  1  2  1  0
  3  2  1  6
  3  4  1  0
  4  5  1  0
  5  6  1  0
  6  7  1  6
  7  8  2  0
  8  9  1  0
  9 10  2  0
 10 11  1  0
 10 12  1  0
 12 13  1  0
 12 14  2  0
  6 15  1  0
 15 16  2  0
 16 17  1  0
 17 18  2  0
 18 19  1  0
 19 20  2  0
 20  3  1  0
 14  7  1  0
 20 15  1  0
M  END
>  <assay_description>  (209) 
Inhibition of human BSEP expressed in baculovirus transfected fall armyworm Sf21 cell membranes vesicles assessed as reduction in ATP-dependent [3H]-taurocholate transport into vesicles incubated for 5 mins by Topcount based rapid filtration method

>  <molecule_pref_name>  (209) 
SERTRALINE

>  <canonical_smiles>  (209) 
CN[C@H]1CC[C@@H](c2ccc(Cl)c(Cl)c2)c2ccccc21

>  <pchembl_value>  (209) 
4.53

>  <standard_type>  (209) 
IC50

>  <standard_relation>  (209) 
=

>  <standard_value>  (209) 
29340.0

>  <standard_units>  (209) 
nM

>  <target_pref_name>  (209) 
Bile salt export pump

>  <target_organism>  (209) 
Homo sapiens

$$$$
CHEMBL192
     RDKit          2D

 33 36  0  0  0  0  0  0  0  0999 V2000
   -4.3786   -5.1199    0.0000 C   0  0  0  0  0  0  0  0  0  0  0  0
   -2.9520   -4.6564    0.0000 C   0  0  0  0  0  0  0  0  0  0  0  0
   -2.6401   -3.1891    0.0000 C   0  0  0  0  0  0  0  0  0  0  0  0
   -1.2135   -2.7256    0.0000 C   0  0  0  0  0  0  0  0  0  0  0  0
   -0.0000   -3.6073    0.0000 N   0  0  0  0  0  0  0  0  0  0  0  0
    1.2135   -2.7256    0.0000 N   0  0  0  0  0  0  0  0  0  0  0  0
    2.6401   -3.1891    0.0000 C   0  0  0  0  0  0  0  0  0  0  0  0
    0.7500   -1.2990    0.0000 C   0  0  0  0  0  0  0  0  0  0  0  0
    1.5000    0.0000    0.0000 C   0  0  0  0  0  0  0  0  0  0  0  0
    3.0000    0.0000    0.0000 O   0  0  0  0  0  0  0  0  0  0  0  0
    0.7500    1.2990    0.0000 N   0  0  0  0  0  0  0  0  0  0  0  0
   -0.7500    1.2990    0.0000 C   0  0  0  0  0  0  0  0  0  0  0  0
   -1.5000    2.5981    0.0000 C   0  0  0  0  0  0  0  0  0  0  0  0
   -0.7500    3.8971    0.0000 C   0  0  0  0  0  0  0  0  0  0  0  0
   -1.5000    5.1962    0.0000 C   0  0  0  0  0  0  0  0  0  0  0  0
   -0.7500    6.4952    0.0000 S   0  0  0  0  0  0  0  0  0  0  0  0
    0.5490    5.7452    0.0000 O   0  0  0  0  0  0  0  0  0  0  0  0
   -2.0490    7.2452    0.0000 O   0  0  0  0  0  0  0  0  0  0  0  0
    0.0000    7.7942    0.0000 N   0  0  0  0  0  0  0  0  0  0  0  0
    1.5000    7.7942    0.0000 C   0  0  0  0  0  0  0  0  0  0  0  0
    2.2500    9.0933    0.0000 C   0  0  0  0  0  0  0  0  0  0  0  0
    1.5000   10.3923    0.0000 N   0  0  0  0  0  0  0  0  0  0  0  0
    2.2500   11.6913    0.0000 C   0  0  0  0  0  0  0  0  0  0  0  0
   -0.0000   10.3923    0.0000 C   0  0  0  0  0  0  0  0  0  0  0  0
   -0.7500    9.0933    0.0000 C   0  0  0  0  0  0  0  0  0  0  0  0
   -3.0000    5.1962    0.0000 C   0  0  0  0  0  0  0  0  0  0  0  0
   -3.7500    3.8971    0.0000 C   0  0  0  0  0  0  0  0  0  0  0  0
   -3.0000    2.5981    0.0000 C   0  0  0  0  0  0  0  0  0  0  0  0
   -3.7500    1.2990    0.0000 O   0  0  0  0  0  0  0  0  0  0  0  0
   -5.2500    1.2990    0.0000 C   0  0  0  0  0  0  0  0  0  0  0  0
   -6.0000    0.0000    0.0000 C   0  0  0  0  0  0  0  0  0  0  0  0
   -1.5000    0.0000    0.0000 N   0  0  0  0  0  0  0  0  0  0  0  0
   -0.7500   -1.2990    0.0000 C   0  0  0  0  0  0  0  0  0  0  0  0
  1  2  1  0
  2  3  1  0
  3  4  1  0
  4  5  2  0
  5  6  1  0
  6  7  1  0
  6  8  1  0
  8  9  1  0
  9 10  2  0
  9 11  1  0
 11 12  1  0
 12 13  1  0
 13 14  2  0
 14 15  1  0
 15 16  1  0
 16 17  2  0
 16 18  2  0
 16 19  1  0
 19 20  1  0
 20 21  1  0
 21 22  1  0
 22 23  1  0
 22 24  1  0
 24 25  1  0
 15 26  2  0
 26 27  1  0
 27 28  2  0
 28 29  1  0
 29 30  1  0
 30 31  1  0
 12 32  2  0
 32 33  1  0
 33  4  1  0
 33  8  2  0
 28 13  1  0
 25 19  1  0
M  END
>  <assay_description>  (210) 
Inhibition of human BSEP expressed in baculovirus transfected fall armyworm Sf21 cell membranes vesicles assessed as reduction in ATP-dependent [3H]-taurocholate transport into vesicles incubated for 5 mins by Topcount based rapid filtration method

>  <molecule_pref_name>  (210) 
SILDENAFIL

>  <canonical_smiles>  (210) 
CCCc1nn(C)c2c(=O)[nH]c(-c3cc(S(=O)(=O)N4CCN(C)CC4)ccc3OCC)nc12

>  <pchembl_value>  (210) 
4.78

>  <standard_type>  (210) 
IC50

>  <standard_relation>  (210) 
=

>  <standard_value>  (210) 
16430.0

>  <standard_units>  (210) 
nM

>  <target_pref_name>  (210) 
Bile salt export pump

>  <target_organism>  (210) 
Homo sapiens

$$$$
CHEMBL1200831
     RDKit          2D

 32 33  0  0  0  0  0  0  0  0999 V2000
   11.0995    1.8899    0.0000 C   0  0  0  0  0  0  0  0  0  0  0  0
    9.7292    2.5000    0.0000 C   0  0  0  0  0  0  0  0  0  0  0  0
    8.5157    1.6183    0.0000 O   0  0  0  0  0  0  0  0  0  0  0  0
    7.1454    2.2284    0.0000 C   0  0  0  0  0  0  0  0  0  0  0  0
    6.9886    3.7202    0.0000 O   0  0  0  0  0  0  0  0  0  0  0  0
    5.9318    1.3467    0.0000 C   0  0  0  0  0  0  0  0  0  0  0  0
    6.0886   -0.1450    0.0000 C   0  0  0  0  0  0  0  0  0  0  0  0
    7.4589   -0.7552    0.0000 C   0  0  0  0  0  0  0  0  0  0  0  0
    7.6157   -2.2469    0.0000 C   0  0  0  0  0  0  0  0  0  0  0  0
    6.4022   -3.1286    0.0000 C   0  0  0  0  0  0  0  0  0  0  0  0
    6.5590   -4.6204    0.0000 C   0  0  0  0  0  0  0  0  0  0  0  0
    7.9293   -5.2305    0.0000 C   0  0  0  0  0  0  0  0  0  0  0  0
    9.1429   -4.3488    0.0000 C   0  0  0  0  0  0  0  0  0  0  0  0
    8.9861   -2.8570    0.0000 C   0  0  0  0  0  0  0  0  0  0  0  0
    4.5615    1.9568    0.0000 N   0  0  0  0  0  0  0  0  0  0  0  0
    4.4047    3.4486    0.0000 C   0  0  0  0  0  0  0  0  0  0  0  0
    5.6183    4.3303    0.0000 C   0  0  0  0  0  0  0  0  0  0  0  0
    3.0344    4.0587    0.0000 C   0  0  0  0  0  0  0  0  0  0  0  0
    2.8776    5.5505    0.0000 O   0  0  0  0  0  0  0  0  0  0  0  0
    1.8209    3.1771    0.0000 N   0  0  0  0  0  0  0  0  0  0  0  0
    1.8209    1.6771    0.0000 C   0  0  0  0  0  0  0  0  0  0  0  0
    0.3943    1.2135    0.0000 C   0  0  0  0  0  0  0  0  0  0  0  0
   -0.4874    2.4271    0.0000 C   0  0  0  0  0  0  0  0  0  0  0  0
    0.3943    3.6406    0.0000 C   0  0  0  0  0  0  0  0  0  0  0  0
   -0.0692    5.0672    0.0000 C   0  0  0  0  0  0  0  0  0  0  0  0
   -1.5364    5.3790    0.0000 O   0  0  0  0  0  0  0  0  0  0  0  0
    0.9345    6.1819    0.0000 O   0  0  0  0  0  0  0  0  0  0  0  0
    1.2760    0.0000    0.0000 S   0  0  0  0  0  0  0  0  0  0  0  0
    0.3943   -1.2135    0.0000 C   0  0  0  0  0  0  0  0  0  0  0  0
   -1.0323   -0.7500    0.0000 C   0  0  0  0  0  0  0  0  0  0  0  0
   -1.0323    0.7500    0.0000 S   0  0  0  0  0  0  0  0  0  0  0  0
    0.0000    7.1819    0.0000 Cl  0  0  0  0  0  0  0  0  0  0  0  0
  1  2  1  0
  2  3  1  0
  3  4  1  0
  4  5  2  0
  4  6  1  0
  6  7  1  6
  7  8  1  0
  8  9  1  0
  9 10  2  0
 10 11  1  0
 11 12  2  0
 12 13  1  0
 13 14  2  0
  6 15  1  0
 15 16  1  0
 16 17  1  6
 16 18  1  0
 18 19  2  0
 18 20  1  0
 20 21  1  0
 21 22  1  0
 22 23  1  0
 23 24  1  0
 24 25  1  1
 25 26  2  0
 25 27  1  0
 22 28  1  0
 28 29  1  0
 29 30  1  0
 30 31  1  0
 14  9  1  0
 24 20  1  0
 31 22  1  0
M  END
>  <assay_description>  (211) 
Inhibition of human BSEP expressed in baculovirus transfected fall armyworm Sf21 cell membranes vesicles assessed as reduction in ATP-dependent [3H]-taurocholate transport into vesicles incubated for 5 mins by Topcount based rapid filtration method

>  <molecule_pref_name>  (211) 
SPIRAPRIL HYDROCHLORIDE

>  <canonical_smiles>  (211) 
CCOC(=O)[C@H](CCc1ccccc1)N[C@@H](C)C(=O)N1CC2(C[C@H]1C(=O)O)SCCS2.Cl

>  <pchembl_value>  (211) 
4.33

>  <standard_type>  (211) 
IC50

>  <standard_relation>  (211) 
=

>  <standard_value>  (211) 
47110.0

>  <standard_units>  (211) 
nM

>  <target_pref_name>  (211) 
Bile salt export pump

>  <target_organism>  (211) 
Homo sapiens

$$$$
CHEMBL535
     RDKit          2D

 29 31  0  0  0  0  0  0  0  0999 V2000
  -12.9041   -9.3825    0.0000 C   0  0  0  0  0  0  0  0  0  0  0  0
  -11.7894   -8.3788    0.0000 C   0  0  0  0  0  0  0  0  0  0  0  0
  -10.3628   -8.8423    0.0000 N   0  0  0  0  0  0  0  0  0  0  0  0
  -10.0510  -10.3095    0.0000 C   0  0  0  0  0  0  0  0  0  0  0  0
  -11.1657  -11.3132    0.0000 C   0  0  0  0  0  0  0  0  0  0  0  0
   -9.2481   -7.8386    0.0000 C   0  0  0  0  0  0  0  0  0  0  0  0
   -7.8215   -8.3021    0.0000 C   0  0  0  0  0  0  0  0  0  0  0  0
   -6.7068   -7.2984    0.0000 N   0  0  0  0  0  0  0  0  0  0  0  0
   -5.2802   -7.7620    0.0000 C   0  0  0  0  0  0  0  0  0  0  0  0
   -4.9684   -9.2292    0.0000 O   0  0  0  0  0  0  0  0  0  0  0  0
   -4.1655   -6.7583    0.0000 C   0  0  0  0  0  0  0  0  0  0  0  0
   -2.6983   -7.0701    0.0000 C   0  0  0  0  0  0  0  0  0  0  0  0
   -2.0882   -8.4404    0.0000 C   0  0  0  0  0  0  0  0  0  0  0  0
   -1.9483   -5.7711    0.0000 N   0  0  0  0  0  0  0  0  0  0  0  0
   -2.9520   -4.6564    0.0000 C   0  0  0  0  0  0  0  0  0  0  0  0
   -2.6401   -3.1891    0.0000 C   0  0  0  0  0  0  0  0  0  0  0  0
   -1.2135   -2.7256    0.0000 C   0  0  0  0  0  0  0  0  0  0  0  0
   -0.0000   -3.6073    0.0000 C   0  0  0  0  0  0  0  0  0  0  0  0
    0.0000   -5.1073    0.0000 O   0  0  0  0  0  0  0  0  0  0  0  0
    1.2135   -2.7256    0.0000 N   0  0  0  0  0  0  0  0  0  0  0  0
    0.7500   -1.2990    0.0000 C   0  0  0  0  0  0  0  0  0  0  0  0
    1.5000    0.0000    0.0000 C   0  0  0  0  0  0  0  0  0  0  0  0
    0.7500    1.2990    0.0000 C   0  0  0  0  0  0  0  0  0  0  0  0
   -0.7500    1.2990    0.0000 C   0  0  0  0  0  0  0  0  0  0  0  0
   -1.5000    2.5981    0.0000 F   0  0  0  0  0  0  0  0  0  0  0  0
   -1.5000    0.0000    0.0000 C   0  0  0  0  0  0  0  0  0  0  0  0
   -0.7500   -1.2990    0.0000 C   0  0  0  0  0  0  0  0  0  0  0  0
   -4.3223   -5.2665    0.0000 C   0  0  0  0  0  0  0  0  0  0  0  0
   -5.6213   -4.5165    0.0000 C   0  0  0  0  0  0  0  0  0  0  0  0
  1  2  1  0
  2  3  1  0
  3  4  1  0
  4  5  1  0
  3  6  1  0
  6  7  1  0
  7  8  1  0
  8  9  1  0
  9 10  2  0
  9 11  1  0
 11 12  2  0
 12 13  1  0
 12 14  1  0
 14 15  1  0
 15 16  1  0
 16 17  2  0
 17 18  1  0
 18 19  2  0
 18 20  1  0
 20 21  1  0
 21 22  2  0
 22 23  1  0
 23 24  2  0
 24 25  1  0
 24 26  1  0
 26 27  2  0
 15 28  2  0
 28 29  1  0
 28 11  1  0
 27 17  1  0
 27 21  1  0
M  END
>  <assay_description>  (212) 
Inhibition of human BSEP expressed in baculovirus transfected fall armyworm Sf21 cell membranes vesicles assessed as reduction in ATP-dependent [3H]-taurocholate transport into vesicles incubated for 5 mins by Topcount based rapid filtration method

>  <molecule_pref_name>  (212) 
SUNITINIB

>  <canonical_smiles>  (212) 
CCN(CC)CCNC(=O)c1c(C)[nH]c(/C=C2\C(=O)Nc3ccc(F)cc32)c1C

>  <pchembl_value>  (212) 
4.34

>  <standard_type>  (212) 
IC50

>  <standard_relation>  (212) 
=

>  <standard_value>  (212) 
45810.0

>  <standard_units>  (212) 
nM

>  <target_pref_name>  (212) 
Bile salt export pump

>  <target_organism>  (212) 
Homo sapiens

$$$$
CHEMBL15770
     RDKit          2D

 25 27  0  0  0  0  0  0  0  0999 V2000
   -0.0000   -5.1073    0.0000 C   0  0  0  0  0  0  0  0  0  0  0  0
   -0.0000   -3.6073    0.0000 C   0  0  0  0  0  0  0  0  0  0  0  0
    1.2135   -2.7256    0.0000 C   0  0  0  0  0  0  0  0  0  0  0  0
    2.6401   -3.1891    0.0000 C   0  0  0  0  0  0  0  0  0  0  0  0
    2.9520   -4.6564    0.0000 C   0  0  0  0  0  0  0  0  0  0  0  0
    1.8373   -5.6601    0.0000 O   0  0  0  0  0  0  0  0  0  0  0  0
    4.3786   -5.1199    0.0000 O   0  0  0  0  0  0  0  0  0  0  0  0
    0.7500   -1.2990    0.0000 C   0  0  0  0  0  0  0  0  0  0  0  0
    1.5000    0.0000    0.0000 C   0  0  0  0  0  0  0  0  0  0  0  0
    0.7500    1.2990    0.0000 C   0  0  0  0  0  0  0  0  0  0  0  0
    1.5000    2.5981    0.0000 F   0  0  0  0  0  0  0  0  0  0  0  0
   -0.7500    1.2990    0.0000 C   0  0  0  0  0  0  0  0  0  0  0  0
   -1.5000    0.0000    0.0000 C   0  0  0  0  0  0  0  0  0  0  0  0
   -0.7500   -1.2990    0.0000 C   0  0  0  0  0  0  0  0  0  0  0  0
   -1.2135   -2.7256    0.0000 C   0  0  0  0  0  0  0  0  0  0  0  0
   -2.6401   -3.1891    0.0000 C   0  0  0  0  0  0  0  0  0  0  0  0
   -3.7548   -2.1855    0.0000 C   0  0  0  0  0  0  0  0  0  0  0  0
   -3.4430   -0.7182    0.0000 C   0  0  0  0  0  0  0  0  0  0  0  0
   -4.5577    0.2855    0.0000 C   0  0  0  0  0  0  0  0  0  0  0  0
   -5.9843   -0.1781    0.0000 C   0  0  0  0  0  0  0  0  0  0  0  0
   -7.0990    0.8256    0.0000 S   0  0  0  0  0  3  0  0  0  0  0  0
   -6.7871    2.2929    0.0000 C   0  0  0  0  0  0  0  0  0  0  0  0
   -8.5256    0.3621    0.0000 O   0  0  0  0  0  1  0  0  0  0  0  0
   -6.2961   -1.6453    0.0000 C   0  0  0  0  0  0  0  0  0  0  0  0
   -5.1814   -2.6490    0.0000 C   0  0  0  0  0  0  0  0  0  0  0  0
  1  2  1  0
  2  3  2  0
  3  4  1  0
  4  5  1  0
  5  6  2  0
  5  7  1  0
  3  8  1  0
  8  9  2  0
  9 10  1  0
 10 11  1  0
 10 12  2  0
 12 13  1  0
 13 14  2  0
 14 15  1  0
 15 16  2  0
 16 17  1  0
 17 18  2  0
 18 19  1  0
 19 20  2  0
 20 21  1  0
 21 22  1  0
 21 23  1  0
 20 24  1  0
 24 25  2  0
 15  2  1  0
 25 17  1  0
 14  8  1  0
M  CHG  2  21   1  23  -1
M  END
>  <assay_description>  (213) 
Inhibition of human BSEP expressed in baculovirus transfected fall armyworm Sf21 cell membranes vesicles assessed as reduction in ATP-dependent [3H]-taurocholate transport into vesicles incubated for 5 mins by Topcount based rapid filtration method

>  <molecule_pref_name>  (213) 
SULINDAC

>  <canonical_smiles>  (213) 
CC1=C(CC(=O)O)c2cc(F)ccc2/C1=C\c1ccc([S+](C)[O-])cc1

>  <pchembl_value>  (213) 
4.20

>  <standard_type>  (213) 
IC50

>  <standard_relation>  (213) 
=

>  <standard_value>  (213) 
63690.0

>  <standard_units>  (213) 
nM

>  <target_pref_name>  (213) 
Bile salt export pump

>  <target_organism>  (213) 
Homo sapiens

$$$$
CHEMBL479
     RDKit          2D

 25 28  0  0  0  0  0  0  0  0999 V2000
    0.7500   -9.0933    0.0000 C   0  0  0  0  0  0  0  0  0  0  0  0
    1.5000   -7.7942    0.0000 S   0  0  0  0  0  0  0  0  0  0  0  0
    0.7500   -6.4952    0.0000 C   0  0  0  0  0  0  0  0  0  0  0  0
   -0.7500   -6.4952    0.0000 C   0  0  0  0  0  0  0  0  0  0  0  0
   -1.5000   -5.1962    0.0000 C   0  0  0  0  0  0  0  0  0  0  0  0
   -0.7500   -3.8971    0.0000 C   0  0  0  0  0  0  0  0  0  0  0  0
    0.7500   -3.8971    0.0000 C   0  0  0  0  0  0  0  0  0  0  0  0
    1.5000   -5.1962    0.0000 C   0  0  0  0  0  0  0  0  0  0  0  0
    1.5000   -2.5981    0.0000 N   0  0  0  0  0  0  0  0  0  0  0  0
    3.0000   -2.5981    0.0000 C   0  0  0  0  0  0  0  0  0  0  0  0
    3.7500   -3.8971    0.0000 C   0  0  0  0  0  0  0  0  0  0  0  0
    5.2500   -3.8971    0.0000 C   0  0  0  0  0  0  0  0  0  0  0  0
    6.0000   -5.1962    0.0000 C   0  0  0  0  0  0  0  0  0  0  0  0
    7.5000   -5.1962    0.0000 C   0  0  0  0  0  0  0  0  0  0  0  0
    8.2500   -3.8971    0.0000 C   0  0  0  0  0  0  0  0  0  0  0  0
    7.5000   -2.5981    0.0000 C   0  0  0  0  0  0  0  0  0  0  0  0
    6.0000   -2.5981    0.0000 N   0  0  0  0  0  0  0  0  0  0  0  0
    5.2500   -1.2990    0.0000 C   0  0  0  0  0  0  0  0  0  0  0  0
    0.7500   -1.2990    0.0000 C   0  0  0  0  0  0  0  0  0  0  0  0
    1.5000    0.0000    0.0000 C   0  0  0  0  0  0  0  0  0  0  0  0
    0.7500    1.2990    0.0000 C   0  0  0  0  0  0  0  0  0  0  0  0
   -0.7500    1.2990    0.0000 C   0  0  0  0  0  0  0  0  0  0  0  0
   -1.5000    0.0000    0.0000 C   0  0  0  0  0  0  0  0  0  0  0  0
   -0.7500   -1.2990    0.0000 C   0  0  0  0  0  0  0  0  0  0  0  0
   -1.5000   -2.5981    0.0000 S   0  0  0  0  0  0  0  0  0  0  0  0
  1  2  1  0
  2  3  1  0
  3  4  2  0
  4  5  1  0
  5  6  2  0
  6  7  1  0
  7  8  2  0
  7  9  1  0
  9 10  1  0
 10 11  1  0
 11 12  1  0
 12 13  1  0
 13 14  1  0
 14 15  1  0
 15 16  1  0
 16 17  1  0
 17 18  1  0
  9 19  1  0
 19 20  2  0
 20 21  1  0
 21 22  2  0
 22 23  1  0
 23 24  2  0
 24 25  1  0
  8  3  1  0
 17 12  1  0
 24 19  1  0
 25  6  1  0
M  END
>  <assay_description>  (214) 
Inhibition of human BSEP expressed in baculovirus transfected fall armyworm Sf21 cell membranes vesicles assessed as reduction in ATP-dependent [3H]-taurocholate transport into vesicles incubated for 5 mins by Topcount based rapid filtration method

>  <molecule_pref_name>  (214) 
THIORIDAZINE

>  <canonical_smiles>  (214) 
CSc1ccc2c(c1)N(CCC1CCCCN1C)c1ccccc1S2

>  <pchembl_value>  (214) 
4.61

>  <standard_type>  (214) 
IC50

>  <standard_relation>  (214) 
=

>  <standard_value>  (214) 
24330.0

>  <standard_units>  (214) 
nM

>  <target_pref_name>  (214) 
Bile salt export pump

>  <target_organism>  (214) 
Homo sapiens

$$$$
CHEMBL1201
     RDKit          2D

 30 33  0  0  0  0  0  0  0  0999 V2000
    8.2500   -9.0933    0.0000 C   0  0  0  0  0  0  0  0  0  0  0  0
    7.5000   -7.7942    0.0000 N   0  0  0  0  0  0  0  0  0  0  0  0
    6.0000   -7.7942    0.0000 C   0  0  0  0  0  0  0  0  0  0  0  0
    5.2500   -6.4952    0.0000 C   0  0  0  0  0  0  0  0  0  0  0  0
    6.0000   -5.1962    0.0000 N   0  0  0  0  0  0  0  0  0  0  0  0
    5.2500   -3.8971    0.0000 C   0  0  0  0  0  0  0  0  0  0  0  0
    3.7500   -3.8971    0.0000 C   0  0  0  0  0  0  0  0  0  0  0  0
    3.0000   -2.5981    0.0000 C   0  0  0  0  0  0  0  0  0  0  0  0
    1.5000   -2.5981    0.0000 C   0  0  0  0  0  0  0  0  0  0  0  0
    0.7500   -1.2990    0.0000 C   0  0  0  0  0  0  0  0  0  0  0  0
    1.5000    0.0000    0.0000 C   0  0  0  0  0  0  0  0  0  0  0  0
    0.7500    1.2990    0.0000 C   0  0  0  0  0  0  0  0  0  0  0  0
   -0.7500    1.2990    0.0000 C   0  0  0  0  0  0  0  0  0  0  0  0
   -1.5000    0.0000    0.0000 C   0  0  0  0  0  0  0  0  0  0  0  0
   -0.7500   -1.2990    0.0000 C   0  0  0  0  0  0  0  0  0  0  0  0
   -1.5000   -2.5981    0.0000 S   0  0  0  0  0  0  0  0  0  0  0  0
   -0.7500   -3.8971    0.0000 C   0  0  0  0  0  0  0  0  0  0  0  0
   -1.5000   -5.1962    0.0000 C   0  0  0  0  0  0  0  0  0  0  0  0
   -0.7500   -6.4952    0.0000 C   0  0  0  0  0  0  0  0  0  0  0  0
    0.7500   -6.4952    0.0000 C   0  0  0  0  0  0  0  0  0  0  0  0
    1.5000   -7.7942    0.0000 S   0  0  0  0  0  0  0  0  0  0  0  0
    0.2010   -8.5442    0.0000 O   0  0  0  0  0  0  0  0  0  0  0  0
    2.7990   -7.0442    0.0000 O   0  0  0  0  0  0  0  0  0  0  0  0
    2.2500   -9.0933    0.0000 N   0  0  0  0  0  0  0  0  0  0  0  0
    3.7500   -9.0933    0.0000 C   0  0  0  0  0  0  0  0  0  0  0  0
    1.5000  -10.3923    0.0000 C   0  0  0  0  0  0  0  0  0  0  0  0
    1.5000   -5.1962    0.0000 C   0  0  0  0  0  0  0  0  0  0  0  0
    0.7500   -3.8971    0.0000 C   0  0  0  0  0  0  0  0  0  0  0  0
    7.5000   -5.1962    0.0000 C   0  0  0  0  0  0  0  0  0  0  0  0
    8.2500   -6.4952    0.0000 C   0  0  0  0  0  0  0  0  0  0  0  0
  1  2  1  0
  2  3  1  0
  3  4  1  0
  4  5  1  0
  5  6  1  0
  6  7  1  0
  7  8  1  0
  8  9  2  0
  9 10  1  0
 10 11  2  0
 11 12  1  0
 12 13  2  0
 13 14  1  0
 14 15  2  0
 15 16  1  0
 16 17  1  0
 17 18  2  0
 18 19  1  0
 19 20  2  0
 20 21  1  0
 21 22  2  0
 21 23  2  0
 21 24  1  0
 24 25  1  0
 24 26  1  0
 20 27  1  0
 27 28  2  0
  5 29  1  0
 29 30  1  0
 30  2  1  0
 28  9  1  0
 15 10  1  0
 28 17  1  0
M  END
>  <assay_description>  (215) 
Inhibition of human BSEP expressed in baculovirus transfected fall armyworm Sf21 cell membranes vesicles assessed as reduction in ATP-dependent [3H]-taurocholate transport into vesicles incubated for 5 mins by Topcount based rapid filtration method

>  <molecule_pref_name>  (215) 
THIOTHIXENE

>  <canonical_smiles>  (215) 
CN1CCN(CC/C=C2/c3ccccc3Sc3ccc(S(=O)(=O)N(C)C)cc32)CC1

>  <pchembl_value>  (215) 
4.52

>  <standard_type>  (215) 
IC50

>  <standard_relation>  (215) 
=

>  <standard_value>  (215) 
30400.0

>  <standard_units>  (215) 
nM

>  <target_pref_name>  (215) 
Bile salt export pump

>  <target_organism>  (215) 
Homo sapiens

$$$$
CHEMBL833
     RDKit          2D

 17 19  0  0  0  0  0  0  0  0999 V2000
   -5.1793    6.2320    0.0000 Cl  0  0  0  0  0  0  0  0  0  0  0  0
   -3.7527    6.6955    0.0000 C   0  0  0  0  0  0  0  0  0  0  0  0
   -3.4408    8.1628    0.0000 C   0  0  0  0  0  0  0  0  0  0  0  0
   -2.0143    8.6263    0.0000 C   0  0  0  0  0  0  0  0  0  0  0  0
   -0.8995    7.6226    0.0000 C   0  0  0  0  0  0  0  0  0  0  0  0
   -1.2114    6.1554    0.0000 C   0  0  0  0  0  0  0  0  0  0  0  0
   -2.6380    5.6918    0.0000 C   0  0  0  0  0  0  0  0  0  0  0  0
   -2.9499    4.2246    0.0000 C   0  0  0  0  0  0  0  0  0  0  0  0
   -1.8351    3.2209    0.0000 N   0  0  0  0  0  0  0  0  0  0  0  0
   -0.4086    3.6844    0.0000 C   0  0  0  0  0  0  0  0  0  0  0  0
    0.7062    2.6807    0.0000 C   0  0  0  0  0  0  0  0  0  0  0  0
    0.3943    1.2135    0.0000 C   0  0  0  0  0  0  0  0  0  0  0  0
    1.2760    0.0000    0.0000 S   0  0  0  0  0  0  0  0  0  0  0  0
    0.3943   -1.2135    0.0000 C   0  0  0  0  0  0  0  0  0  0  0  0
   -1.0323   -0.7500    0.0000 C   0  0  0  0  0  0  0  0  0  0  0  0
   -1.0323    0.7500    0.0000 C   0  0  0  0  0  0  0  0  0  0  0  0
   -2.1470    1.7537    0.0000 C   0  0  0  0  0  0  0  0  0  0  0  0
  1  2  1  0
  2  3  2  0
  3  4  1  0
  4  5  2  0
  5  6  1  0
  6  7  2  0
  7  8  1  0
  8  9  1  0
  9 10  1  0
 10 11  1  0
 11 12  1  0
 12 13  1  0
 13 14  1  0
 14 15  2  0
 15 16  1  0
 16 17  1  0
  7  2  1  0
 17  9  1  0
 16 12  2  0
M  END
>  <assay_description>  (216) 
Inhibition of human BSEP expressed in baculovirus transfected fall armyworm Sf21 cell membranes vesicles assessed as reduction in ATP-dependent [3H]-taurocholate transport into vesicles incubated for 5 mins by Topcount based rapid filtration method

>  <molecule_pref_name>  (216) 
TICLOPIDINE

>  <canonical_smiles>  (216) 
Clc1ccccc1CN1CCc2sccc2C1

>  <pchembl_value>  (216) 
4.57

>  <standard_type>  (216) 
IC50

>  <standard_relation>  (216) 
=

>  <standard_value>  (216) 
26950.0

>  <standard_units>  (216) 
nM

>  <target_pref_name>  (216) 
Bile salt export pump

>  <target_organism>  (216) 
Homo sapiens

$$$$
CHEMBL15023
     RDKit          2D

 29 31  0  0  0  0  0  0  0  0999 V2000
   -0.7500   -6.4952    0.0000 O   0  0  0  0  0  0  0  0  0  0  0  0
    0.7500   -6.4952    0.0000 C   0  0  0  0  0  0  0  0  0  0  0  0
    1.5000   -5.1962    0.0000 C   0  0  0  0  0  0  0  0  0  0  0  0
    0.7500   -3.8971    0.0000 C   0  0  0  0  0  0  0  0  0  0  0  0
    1.5000   -2.5981    0.0000 C   0  0  0  0  0  0  0  0  0  0  0  0
    0.7500   -1.2990    0.0000 N   0  0  0  0  0  0  0  0  0  0  0  0
    1.5000    0.0000    0.0000 C   0  0  0  0  0  0  0  0  0  0  0  0
    0.7500    1.2990    0.0000 C   0  0  0  0  0  0  0  0  0  0  0  0
   -0.7500    1.2990    0.0000 C   0  0  0  0  0  0  0  0  0  0  0  0
   -0.4895    2.7762    0.0000 O   0  0  0  0  0  0  0  0  0  0  0  0
   -2.1595    1.8121    0.0000 C   0  0  0  0  0  0  0  0  0  0  0  0
   -2.4200    3.2893    0.0000 C   0  0  0  0  0  0  0  0  0  0  0  0
   -3.8296    3.8023    0.0000 C   0  0  0  0  0  0  0  0  0  0  0  0
   -4.9786    2.8381    0.0000 C   0  0  0  0  0  0  0  0  0  0  0  0
   -4.7181    1.3609    0.0000 C   0  0  0  0  0  0  0  0  0  0  0  0
   -5.8672    0.3967    0.0000 C   0  0  0  0  0  0  0  0  0  0  0  0
   -7.0163   -0.5674    0.0000 F   0  0  0  0  0  0  0  0  0  0  0  0
   -6.8314    1.5458    0.0000 F   0  0  0  0  0  0  0  0  0  0  0  0
   -4.9030   -0.7523    0.0000 F   0  0  0  0  0  0  0  0  0  0  0  0
   -3.3086    0.8479    0.0000 C   0  0  0  0  0  0  0  0  0  0  0  0
   -1.5000    0.0000    0.0000 C   0  0  0  0  0  0  0  0  0  0  0  0
   -0.7500   -1.2990    0.0000 C   0  0  0  0  0  0  0  0  0  0  0  0
    1.5000   -7.7942    0.0000 C   0  0  0  0  0  0  0  0  0  0  0  0
    0.7500   -9.0933    0.0000 C   0  0  0  0  0  0  0  0  0  0  0  0
    1.5000  -10.3923    0.0000 C   0  0  0  0  0  0  0  0  0  0  0  0
    3.0000  -10.3923    0.0000 C   0  0  0  0  0  0  0  0  0  0  0  0
    3.7500  -11.6913    0.0000 F   0  0  0  0  0  0  0  0  0  0  0  0
    3.7500   -9.0933    0.0000 C   0  0  0  0  0  0  0  0  0  0  0  0
    3.0000   -7.7942    0.0000 C   0  0  0  0  0  0  0  0  0  0  0  0
  1  2  2  0
  2  3  1  0
  3  4  1  0
  4  5  1  0
  5  6  1  0
  6  7  1  0
  7  8  1  0
  8  9  1  0
  9 10  1  0
  9 11  1  0
 11 12  2  0
 12 13  1  0
 13 14  2  0
 14 15  1  0
 15 16  1  0
 16 17  1  0
 16 18  1  0
 16 19  1  0
 15 20  2  0
  9 21  1  0
 21 22  1  0
  2 23  1  0
 23 24  2  0
 24 25  1  0
 25 26  2  0
 26 27  1  0
 26 28  1  0
 28 29  2  0
 22  6  1  0
 29 23  1  0
 20 11  1  0
M  END
>  <assay_description>  (217) 
Inhibition of human BSEP expressed in baculovirus transfected fall armyworm Sf21 cell membranes vesicles assessed as reduction in ATP-dependent [3H]-taurocholate transport into vesicles incubated for 5 mins by Topcount based rapid filtration method

>  <molecule_pref_name>  (217) 
TRIFLUPERIDOL

>  <canonical_smiles>  (217) 
O=C(CCCN1CCC(O)(c2cccc(C(F)(F)F)c2)CC1)c1ccc(F)cc1

>  <pchembl_value>  (217) 
4.71

>  <standard_type>  (217) 
IC50

>  <standard_relation>  (217) 
=

>  <standard_value>  (217) 
19700.0

>  <standard_units>  (217) 
nM

>  <target_pref_name>  (217) 
Bile salt export pump

>  <target_organism>  (217) 
Homo sapiens

$$$$
CHEMBL570
     RDKit          2D

 24 26  0  0  0  0  0  0  0  0999 V2000
    7.5000   -5.1962    0.0000 C   0  0  0  0  0  0  0  0  0  0  0  0
    6.0000   -5.1962    0.0000 N   0  0  0  0  0  0  0  0  0  0  0  0
    5.2500   -6.4952    0.0000 C   0  0  0  0  0  0  0  0  0  0  0  0
    5.2500   -3.8971    0.0000 C   0  0  0  0  0  0  0  0  0  0  0  0
    3.7500   -3.8971    0.0000 C   0  0  0  0  0  0  0  0  0  0  0  0
    3.0000   -2.5981    0.0000 C   0  0  0  0  0  0  0  0  0  0  0  0
    1.5000   -2.5981    0.0000 N   0  0  0  0  0  0  0  0  0  0  0  0
    0.7500   -1.2990    0.0000 C   0  0  0  0  0  0  0  0  0  0  0  0
    1.5000    0.0000    0.0000 C   0  0  0  0  0  0  0  0  0  0  0  0
    0.7500    1.2990    0.0000 C   0  0  0  0  0  0  0  0  0  0  0  0
   -0.7500    1.2990    0.0000 C   0  0  0  0  0  0  0  0  0  0  0  0
   -1.5000    0.0000    0.0000 C   0  0  0  0  0  0  0  0  0  0  0  0
   -0.7500   -1.2990    0.0000 C   0  0  0  0  0  0  0  0  0  0  0  0
   -1.5000   -2.5981    0.0000 S   0  0  0  0  0  0  0  0  0  0  0  0
   -0.7500   -3.8971    0.0000 C   0  0  0  0  0  0  0  0  0  0  0  0
   -1.5000   -5.1962    0.0000 C   0  0  0  0  0  0  0  0  0  0  0  0
   -0.7500   -6.4952    0.0000 C   0  0  0  0  0  0  0  0  0  0  0  0
    0.7500   -6.4952    0.0000 C   0  0  0  0  0  0  0  0  0  0  0  0
    1.5000   -7.7942    0.0000 C   0  0  0  0  0  0  0  0  0  0  0  0
    2.2500   -9.0933    0.0000 F   0  0  0  0  0  0  0  0  0  0  0  0
    0.2010   -8.5442    0.0000 F   0  0  0  0  0  0  0  0  0  0  0  0
    2.7990   -7.0442    0.0000 F   0  0  0  0  0  0  0  0  0  0  0  0
    1.5000   -5.1962    0.0000 C   0  0  0  0  0  0  0  0  0  0  0  0
    0.7500   -3.8971    0.0000 C   0  0  0  0  0  0  0  0  0  0  0  0
  1  2  1  0
  2  3  1  0
  2  4  1  0
  4  5  1  0
  5  6  1  0
  6  7  1  0
  7  8  1  0
  8  9  2  0
  9 10  1  0
 10 11  2  0
 11 12  1  0
 12 13  2  0
 13 14  1  0
 14 15  1  0
 15 16  2  0
 16 17  1  0
 17 18  2  0
 18 19  1  0
 19 20  1  0
 19 21  1  0
 19 22  1  0
 18 23  1  0
 23 24  2  0
 24  7  1  0
 13  8  1  0
 24 15  1  0
M  END
>  <assay_description>  (218) 
Inhibition of human BSEP expressed in baculovirus transfected fall armyworm Sf21 cell membranes vesicles assessed as reduction in ATP-dependent [3H]-taurocholate transport into vesicles incubated for 5 mins by Topcount based rapid filtration method

>  <molecule_pref_name>  (218) 
TRIFLUPROMAZINE

>  <canonical_smiles>  (218) 
CN(C)CCCN1c2ccccc2Sc2ccc(C(F)(F)F)cc21

>  <pchembl_value>  (218) 
4.41

>  <standard_type>  (218) 
IC50

>  <standard_relation>  (218) 
=

>  <standard_value>  (218) 
39010.0

>  <standard_units>  (218) 
nM

>  <target_pref_name>  (218) 
Bile salt export pump

>  <target_organism>  (218) 
Homo sapiens

$$$$
CHEMBL829
     RDKit          2D

 21 23  0  0  0  0  0  0  0  0999 V2000
    5.2500   -3.8971    0.0000 C   0  0  0  0  0  0  0  0  0  0  0  0
    3.7500   -3.8971    0.0000 C   0  0  0  0  0  0  0  0  0  0  0  0
    3.0000   -5.1962    0.0000 C   0  0  0  0  0  0  0  0  0  0  0  0
    3.7500   -6.4952    0.0000 N   0  0  0  0  0  0  0  0  0  0  0  0
    3.0000   -7.7942    0.0000 C   0  0  0  0  0  0  0  0  0  0  0  0
    5.2500   -6.4952    0.0000 C   0  0  0  0  0  0  0  0  0  0  0  0
    3.0000   -2.5981    0.0000 C   0  0  0  0  0  0  0  0  0  0  0  0
    1.5000   -2.5981    0.0000 N   0  0  0  0  0  0  0  0  0  0  0  0
    0.7500   -1.2990    0.0000 C   0  0  0  0  0  0  0  0  0  0  0  0
    1.5000    0.0000    0.0000 C   0  0  0  0  0  0  0  0  0  0  0  0
    0.7500    1.2990    0.0000 C   0  0  0  0  0  0  0  0  0  0  0  0
   -0.7500    1.2990    0.0000 C   0  0  0  0  0  0  0  0  0  0  0  0
   -1.5000    0.0000    0.0000 C   0  0  0  0  0  0  0  0  0  0  0  0
   -0.7500   -1.2990    0.0000 C   0  0  0  0  0  0  0  0  0  0  0  0
   -1.5000   -2.5981    0.0000 S   0  0  0  0  0  0  0  0  0  0  0  0
   -0.7500   -3.8971    0.0000 C   0  0  0  0  0  0  0  0  0  0  0  0
   -1.5000   -5.1962    0.0000 C   0  0  0  0  0  0  0  0  0  0  0  0
   -0.7500   -6.4952    0.0000 C   0  0  0  0  0  0  0  0  0  0  0  0
    0.7500   -6.4952    0.0000 C   0  0  0  0  0  0  0  0  0  0  0  0
    1.5000   -5.1962    0.0000 C   0  0  0  0  0  0  0  0  0  0  0  0
    0.7500   -3.8971    0.0000 C   0  0  0  0  0  0  0  0  0  0  0  0
  1  2  1  0
  2  3  1  0
  3  4  1  0
  4  5  1  0
  4  6  1  0
  2  7  1  0
  7  8  1  0
  8  9  1  0
  9 10  2  0
 10 11  1  0
 11 12  2  0
 12 13  1  0
 13 14  2  0
 14 15  1  0
 15 16  1  0
 16 17  2  0
 17 18  1  0
 18 19  2  0
 19 20  1  0
 20 21  2  0
 21  8  1  0
 14  9  1  0
 21 16  1  0
M  END
>  <assay_description>  (219) 
Inhibition of human BSEP expressed in baculovirus transfected fall armyworm Sf21 cell membranes vesicles assessed as reduction in ATP-dependent [3H]-taurocholate transport into vesicles incubated for 5 mins by Topcount based rapid filtration method

>  <molecule_pref_name>  (219) 
METHYLPROMAZINE

>  <canonical_smiles>  (219) 
CC(CN(C)C)CN1c2ccccc2Sc2ccccc21

>  <pchembl_value>  (219) 
4.13

>  <standard_type>  (219) 
IC50

>  <standard_relation>  (219) 
=

>  <standard_value>  (219) 
73720.0

>  <standard_units>  (219) 
nM

>  <target_pref_name>  (219) 
Bile salt export pump

>  <target_organism>  (219) 
Homo sapiens

$$$$
CHEMBL408
     RDKit          2D

 31 34  0  0  0  0  0  0  0  0999 V2000
   -1.5000   -5.1962    0.0000 C   0  0  0  0  0  0  0  0  0  0  0  0
   -0.7500   -3.8971    0.0000 C   0  0  0  0  0  0  0  0  0  0  0  0
   -1.5000   -2.5981    0.0000 C   0  0  0  0  0  0  0  0  0  0  0  0
   -3.0000   -2.5981    0.0000 C   0  0  0  0  0  0  0  0  0  0  0  0
   -0.7500   -1.2990    0.0000 C   0  0  0  0  0  0  0  0  0  0  0  0
    0.7500   -1.2990    0.0000 C   0  0  0  0  0  0  0  0  0  0  0  0
    1.5000   -2.5981    0.0000 C   0  0  0  0  0  0  0  0  0  0  0  0
    3.0000   -2.5981    0.0000 C   0  0  0  0  0  0  0  0  0  0  0  0
    0.7500   -3.8971    0.0000 C   0  0  0  0  0  0  0  0  0  0  0  0
    1.5000   -5.1962    0.0000 O   0  0  0  0  0  0  0  0  0  0  0  0
    1.5000    0.0000    0.0000 C   0  0  0  0  0  0  0  0  0  0  0  0
    0.7500    1.2990    0.0000 C   0  0  0  0  0  0  0  0  0  0  0  0
   -0.7500    1.2990    0.0000 C   0  0  0  0  0  0  0  0  0  0  0  0
   -2.1595    1.8121    0.0000 C   0  0  0  0  0  0  0  0  0  0  0  0
   -0.4895    2.7762    0.0000 C   0  0  0  0  0  0  0  0  0  0  0  0
    0.9200    3.2893    0.0000 O   0  0  0  0  0  0  0  0  0  0  0  0
    1.1805    4.7665    0.0000 C   0  0  0  0  0  0  0  0  0  0  0  0
    2.5900    5.2795    0.0000 C   0  0  0  0  0  0  0  0  0  0  0  0
    2.8505    6.7567    0.0000 C   0  0  0  0  0  0  0  0  0  0  0  0
    1.7014    7.7209    0.0000 C   0  0  0  0  0  0  0  0  0  0  0  0
    1.9619    9.1981    0.0000 C   0  0  0  0  0  0  0  0  0  0  0  0
    3.3714    9.7112    0.0000 C   0  0  0  0  0  0  0  0  0  0  0  0
    3.7849   11.1530    0.0000 S   0  0  0  0  0  0  0  0  0  0  0  0
    5.2840   11.2054    0.0000 C   0  0  0  0  0  0  0  0  0  0  0  0
    6.1228   12.4490    0.0000 O   0  0  0  0  0  0  0  0  0  0  0  0
    5.7970    9.7959    0.0000 N   0  0  0  0  0  0  0  0  0  0  0  0
    4.6150    8.8724    0.0000 C   0  0  0  0  0  0  0  0  0  0  0  0
    4.6673    7.3733    0.0000 O   0  0  0  0  0  0  0  0  0  0  0  0
    0.2919    7.2079    0.0000 C   0  0  0  0  0  0  0  0  0  0  0  0
    0.0314    5.7307    0.0000 C   0  0  0  0  0  0  0  0  0  0  0  0
   -1.5000    0.0000    0.0000 O   0  0  0  0  0  0  0  0  0  0  0  0
  1  2  1  0
  2  3  2  0
  3  4  1  0
  3  5  1  0
  5  6  2  0
  6  7  1  0
  7  8  1  0
  7  9  2  0
  9 10  1  0
  6 11  1  0
 11 12  1  0
 12 13  1  0
 13 14  1  0
 13 15  1  0
 15 16  1  0
 16 17  1  0
 17 18  2  0
 18 19  1  0
 19 20  2  0
 20 21  1  0
 21 22  1  0
 22 23  1  0
 23 24  1  0
 24 25  2  0
 24 26  1  0
 26 27  1  0
 27 28  2  0
 20 29  1  0
 29 30  2  0
 13 31  1  0
  9  2  1  0
 30 17  1  0
 31  5  1  0
 27 22  1  0
M  END
>  <assay_description>  (220) 
Inhibition of human BSEP expressed in baculovirus transfected fall armyworm Sf21 cell membranes vesicles assessed as reduction in ATP-dependent [3H]-taurocholate transport into vesicles incubated for 5 mins by Topcount based rapid filtration method

>  <molecule_pref_name>  (220) 
TROGLITAZONE

>  <canonical_smiles>  (220) 
Cc1c(C)c2c(c(C)c1O)CCC(C)(COc1ccc(CC3SC(=O)NC3=O)cc1)O2

>  <pchembl_value>  (220) 
5.16

>  <standard_type>  (220) 
IC50

>  <standard_relation>  (220) 
=

>  <standard_value>  (220) 
6900.0

>  <standard_units>  (220) 
nM

>  <target_pref_name>  (220) 
Bile salt export pump

>  <target_organism>  (220) 
Homo sapiens

$$$$
CHEMBL1280
     RDKit          2D

 34 34  0  0  0  0  0  0  0  0999 V2000
    3.7500   -1.2990    0.0000 C   0  0  0  0  0  0  0  0  0  0  0  0
    3.0000    0.0000    0.0000 O   0  0  0  0  0  0  0  0  0  0  0  0
    1.5000    0.0000    0.0000 C   0  0  0  0  0  0  0  0  0  0  0  0
    0.7500   -1.2990    0.0000 C   0  0  0  0  0  0  0  0  0  0  0  0
   -0.7500   -1.2990    0.0000 C   0  0  0  0  0  0  0  0  0  0  0  0
   -1.5000    0.0000    0.0000 C   0  0  0  0  0  0  0  0  0  0  0  0
   -3.0000    0.0000    0.0000 C   0  0  0  0  0  0  0  0  0  0  0  0
   -3.7500    1.2990    0.0000 C   0  0  0  0  0  0  0  0  0  0  0  0
   -5.2500    1.2990    0.0000 N   0  0  0  0  0  0  0  0  0  0  0  0
   -6.0000    2.5981    0.0000 C   0  0  0  0  0  0  0  0  0  0  0  0
   -6.0000    0.0000    0.0000 C   0  0  0  0  0  0  0  0  0  0  0  0
   -7.5000    0.0000    0.0000 C   0  0  0  0  0  0  0  0  0  0  0  0
   -8.2500   -1.2990    0.0000 C   0  0  0  0  0  0  0  0  0  0  0  0
   -9.7500   -1.2990    0.0000 C   0  0  0  0  0  0  0  0  0  0  0  0
   -9.7500    0.2010    0.0000 C   0  0  0  0  0  0  0  0  0  0  0  0
   -9.7500    1.7010    0.0000 N   0  0  0  0  0  0  0  0  0  0  0  0
   -9.7500   -2.7990    0.0000 C   0  0  0  0  0  0  0  0  0  0  0  0
  -11.0490   -3.5490    0.0000 C   0  0  0  0  0  0  0  0  0  0  0  0
  -11.0490   -5.0490    0.0000 C   0  0  0  0  0  0  0  0  0  0  0  0
   -9.7500   -5.7990    0.0000 C   0  0  0  0  0  0  0  0  0  0  0  0
   -9.7500   -7.2990    0.0000 O   0  0  0  0  0  0  0  0  0  0  0  0
  -11.0490   -8.0490    0.0000 C   0  0  0  0  0  0  0  0  0  0  0  0
   -8.4510   -5.0490    0.0000 C   0  0  0  0  0  0  0  0  0  0  0  0
   -7.1519   -5.7990    0.0000 O   0  0  0  0  0  0  0  0  0  0  0  0
   -5.8529   -5.0490    0.0000 C   0  0  0  0  0  0  0  0  0  0  0  0
   -8.4510   -3.5490    0.0000 C   0  0  0  0  0  0  0  0  0  0  0  0
  -11.2500   -1.2990    0.0000 C   0  0  0  0  0  0  0  0  0  0  0  0
  -12.0000    0.0000    0.0000 C   0  0  0  0  0  0  0  0  0  0  0  0
  -12.0000   -2.5981    0.0000 C   0  0  0  0  0  0  0  0  0  0  0  0
   -0.7500    1.2990    0.0000 C   0  0  0  0  0  0  0  0  0  0  0  0
    0.7500    1.2990    0.0000 C   0  0  0  0  0  0  0  0  0  0  0  0
    1.5000    2.5981    0.0000 O   0  0  0  0  0  0  0  0  0  0  0  0
    0.7500    3.8971    0.0000 C   0  0  0  0  0  0  0  0  0  0  0  0
    0.0000    4.8971    0.0000 Cl  0  0  0  0  0  0  0  0  0  0  0  0
  1  2  1  0
  2  3  1  0
  3  4  2  0
  4  5  1  0
  5  6  2  0
  6  7  1  0
  7  8  1  0
  8  9  1  0
  9 10  1  0
  9 11  1  0
 11 12  1  0
 12 13  1  0
 13 14  1  0
 14 15  1  0
 15 16  3  0
 14 17  1  0
 17 18  2  0
 18 19  1  0
 19 20  2  0
 20 21  1  0
 21 22  1  0
 20 23  1  0
 23 24  1  0
 24 25  1  0
 23 26  2  0
 14 27  1  0
 27 28  1  0
 27 29  1  0
  6 30  1  0
 30 31  2  0
 31 32  1  0
 32 33  1  0
 31  3  1  0
 26 17  1  0
M  END
>  <assay_description>  (221) 
Inhibition of human BSEP expressed in baculovirus transfected fall armyworm Sf21 cell membranes vesicles assessed as reduction in ATP-dependent [3H]-taurocholate transport into vesicles incubated for 5 mins by Topcount based rapid filtration method

>  <molecule_pref_name>  (221) 
VERAPAMIL HYDROCHLORIDE

>  <canonical_smiles>  (221) 
COc1ccc(CCN(C)CCCC(C#N)(c2ccc(OC)c(OC)c2)C(C)C)cc1OC.Cl

>  <pchembl_value>  (221) 
4.69

>  <standard_type>  (221) 
IC50

>  <standard_relation>  (221) 
=

>  <standard_value>  (221) 
20500.0

>  <standard_units>  (221) 
nM

>  <target_pref_name>  (221) 
Bile salt export pump

>  <target_organism>  (221) 
Homo sapiens

$$$$
CHEMBL4060773
     RDKit          2D

 29 31  0  0  0  0  0  0  0  0999 V2000
    3.7500   -1.2990    0.0000 C   0  0  0  0  0  0  0  0  0  0  0  0
    3.0000    0.0000    0.0000 O   0  0  0  0  0  0  0  0  0  0  0  0
    1.5000    0.0000    0.0000 C   0  0  0  0  0  0  0  0  0  0  0  0
    0.7500   -1.2990    0.0000 N   0  0  0  0  0  0  0  0  0  0  0  0
   -0.7500   -1.2990    0.0000 C   0  0  0  0  0  0  0  0  0  0  0  0
   -1.5000   -2.5981    0.0000 C   0  0  0  0  0  0  0  0  0  0  0  0
   -1.5000    0.0000    0.0000 C   0  0  0  0  0  0  0  0  0  0  0  0
   -0.7500    1.2990    0.0000 N   0  0  0  0  0  0  0  0  0  0  0  0
    0.7500    1.2990    0.0000 C   0  0  0  0  0  0  0  0  0  0  0  0
    1.5000    2.5981    0.0000 N   0  0  0  0  0  0  0  0  0  0  0  0
    3.0000    2.5981    0.0000 S   0  0  0  0  0  0  0  0  0  0  0  0
    3.0000    1.0981    0.0000 O   0  0  0  0  0  0  0  0  0  0  0  0
    3.0000    4.0981    0.0000 O   0  0  0  0  0  0  0  0  0  0  0  0
    4.5000    2.5981    0.0000 C   0  0  0  0  0  0  0  0  0  0  0  0
    5.2500    1.2990    0.0000 C   0  0  0  0  0  0  0  0  0  0  0  0
    6.7500    1.2990    0.0000 C   0  0  0  0  0  0  0  0  0  0  0  0
    7.5000    2.5981    0.0000 C   0  0  0  0  0  0  0  0  0  0  0  0
    6.7500    3.8971    0.0000 N   0  0  0  0  0  0  0  0  0  0  0  0
    5.2500    3.8971    0.0000 C   0  0  0  0  0  0  0  0  0  0  0  0
    4.5000    5.1962    0.0000 C   0  0  0  0  0  0  0  0  0  0  0  0
    5.2500    6.4952    0.0000 C   0  0  0  0  0  0  0  0  0  0  0  0
    4.5000    7.7942    0.0000 C   0  0  0  0  0  0  0  0  0  0  0  0
    3.0000    7.7942    0.0000 C   0  0  0  0  0  0  0  0  0  0  0  0
    2.2500    9.0933    0.0000 C   0  0  0  0  0  0  0  0  0  0  0  0
    3.0000   10.3923    0.0000 C   0  0  0  0  0  0  0  0  0  0  0  0
    2.2500   11.6913    0.0000 C   0  0  0  0  0  0  0  0  0  0  0  0
    4.5000   10.3923    0.0000 C   0  0  0  0  0  0  0  0  0  0  0  0
    2.2500    6.4952    0.0000 C   0  0  0  0  0  0  0  0  0  0  0  0
    3.0000    5.1962    0.0000 C   0  0  0  0  0  0  0  0  0  0  0  0
  1  2  1  0
  2  3  1  0
  3  4  2  0
  4  5  1  0
  5  6  1  0
  5  7  2  0
  7  8  1  0
  8  9  2  0
  9 10  1  0
 10 11  1  0
 11 12  2  0
 11 13  2  0
 11 14  1  0
 14 15  2  0
 15 16  1  0
 16 17  2  0
 17 18  1  0
 18 19  2  0
 19 20  1  0
 20 21  2  0
 21 22  1  0
 22 23  2  0
 23 24  1  0
 24 25  1  0
 25 26  1  0
 25 27  1  0
 23 28  1  0
 28 29  2  0
  9  3  1  0
 19 14  1  0
 29 20  1  0
M  END
>  <assay_description>  (222) 
Inhibition of human BSEP expressed in baculovirus transfected fall armyworm Sf21 cell membranes vesicles assessed as reduction in ATP-dependent [3H]-taurocholate transport into vesicles incubated for 5 mins by Topcount based rapid filtration method

>  <molecule_pref_name>  (222) 
None

>  <canonical_smiles>  (222) 
COc1nc(C)cnc1NS(=O)(=O)c1cccnc1-c1ccc(CC(C)C)cc1

>  <pchembl_value>  (222) 
4.71

>  <standard_type>  (222) 
IC50

>  <standard_relation>  (222) 
=

>  <standard_value>  (222) 
19450.0

>  <standard_units>  (222) 
nM

>  <target_pref_name>  (222) 
Bile salt export pump

>  <target_organism>  (222) 
Homo sapiens

$$$$
CHEMBL18861
     RDKit          2D

 24 25  0  0  0  0  0  0  0  0999 V2000
    6.7500   -1.2990    0.0000 C   0  0  0  0  0  0  0  0  0  0  0  0
    5.2500   -1.2990    0.0000 C   0  0  0  0  0  0  0  0  0  0  0  0
    5.2500    0.2010    0.0000 O   0  0  0  0  0  0  0  0  0  0  0  0
    3.7500   -1.2990    0.0000 C   0  0  0  0  0  0  0  0  0  0  0  0
    2.8472   -2.4970    0.0000 O   0  0  0  0  0  0  0  0  0  0  0  0
    3.0000    0.0000    0.0000 N   0  0  0  0  0  0  0  0  0  0  0  0
    1.5000    0.0000    0.0000 C   0  0  0  0  0  0  0  0  0  0  0  0
    0.7500   -1.2990    0.0000 C   0  0  0  0  0  0  0  0  0  0  0  0
   -0.7500   -1.2990    0.0000 C   0  0  0  0  0  0  0  0  0  0  0  0
   -1.5000    0.0000    0.0000 C   0  0  0  0  0  0  0  0  0  0  0  0
   -3.0000    0.0000    0.0000 C   0  0  0  0  0  0  0  0  0  0  0  0
   -3.7500   -1.2990    0.0000 O   0  0  0  0  0  0  0  0  0  0  0  0
   -3.7500    1.2990    0.0000 C   0  0  0  0  0  0  0  0  0  0  0  0
   -3.0000    2.5981    0.0000 C   0  0  0  0  0  0  0  0  0  0  0  0
   -3.7500    3.8971    0.0000 C   0  0  0  0  0  0  0  0  0  0  0  0
   -5.2500    3.8971    0.0000 C   0  0  0  0  0  0  0  0  0  0  0  0
   -6.0000    2.5981    0.0000 C   0  0  0  0  0  0  0  0  0  0  0  0
   -5.2500    1.2990    0.0000 C   0  0  0  0  0  0  0  0  0  0  0  0
   -0.7500    1.2990    0.0000 C   0  0  0  0  0  0  0  0  0  0  0  0
    0.7500    1.2990    0.0000 C   0  0  0  0  0  0  0  0  0  0  0  0
    5.2500   -2.7990    0.0000 C   0  0  0  0  0  0  0  0  0  0  0  0
    5.2500   -4.2990    0.0000 F   0  0  0  0  0  0  0  0  0  0  0  0
    3.7612   -2.9819    0.0000 F   0  0  0  0  0  0  0  0  0  0  0  0
    6.7500   -2.7990    0.0000 F   0  0  0  0  0  0  0  0  0  0  0  0
  2  1  1  1
  2  3  1  0
  2  4  1  0
  4  5  2  0
  4  6  1  0
  6  7  1  0
  7  8  2  0
  8  9  1  0
  9 10  2  0
 10 11  1  0
 11 12  2  0
 11 13  1  0
 13 14  2  0
 14 15  1  0
 15 16  2  0
 16 17  1  0
 17 18  2  0
 10 19  1  0
 19 20  2  0
  2 21  1  0
 21 22  1  0
 21 23  1  0
 21 24  1  0
 20  7  1  0
 18 13  1  0
M  END
>  <assay_description>  (223) 
Inhibition of human BSEP expressed in baculovirus transfected fall armyworm Sf21 cell membranes vesicles assessed as reduction in ATP-dependent [3H]-taurocholate transport into vesicles incubated for 5 mins by Topcount based rapid filtration method

>  <molecule_pref_name>  (223) 
ZD-6169

>  <canonical_smiles>  (223) 
C[C@](O)(C(=O)Nc1ccc(C(=O)c2ccccc2)cc1)C(F)(F)F

>  <pchembl_value>  (223) 
4.67

>  <standard_type>  (223) 
IC50

>  <standard_relation>  (223) 
=

>  <standard_value>  (223) 
21390.0

>  <standard_units>  (223) 
nM

>  <target_pref_name>  (223) 
Bile salt export pump

>  <target_organism>  (223) 
Homo sapiens

$$$$
CHEMBL1766
     RDKit          2D

 27 30  0  0  0  0  0  0  0  0999 V2000
   -2.2500   -9.0044    0.0000 C   0  0  0  0  0  0  0  0  0  0  0  0
   -2.2500   -7.5044    0.0000 C   0  0  0  0  0  0  0  0  0  0  0  0
   -1.0365   -6.6227    0.0000 C   0  0  0  0  0  0  0  0  0  0  0  0
   -1.5000   -5.1962    0.0000 C   0  0  0  0  0  0  0  0  0  0  0  0
   -0.7500   -3.8971    0.0000 C   0  0  0  0  0  0  0  0  0  0  0  0
    0.7500   -3.8971    0.0000 C   0  0  0  0  0  0  0  0  0  0  0  0
    1.5000   -2.5981    0.0000 C   0  0  0  0  0  0  0  0  0  0  0  0
    0.7500   -1.2990    0.0000 C   0  0  0  0  0  0  0  0  0  0  0  0
    1.5000    0.0000    0.0000 C   0  0  0  0  0  0  0  0  0  0  0  0
    0.7500    1.2990    0.0000 C   0  0  0  0  0  0  0  0  0  0  0  0
    1.5000    2.5981    0.0000 O   0  0  0  0  0  0  0  0  0  0  0  0
   -0.7500    1.2990    0.0000 C   0  0  0  0  0  0  0  0  0  0  0  0
   -1.5000    0.0000    0.0000 C   0  0  0  0  0  0  0  0  0  0  0  0
   -0.7500   -1.2990    0.0000 C   0  0  0  0  0  0  0  0  0  0  0  0
   -1.6291   -1.1911    0.0000 C   0  0  0  0  0  0  0  0  0  0  0  0
   -1.5000   -2.5981    0.0000 C   0  0  0  0  0  0  0  0  0  0  0  0
   -2.0331   -1.8907    0.0000 F   0  0  0  0  0  0  0  0  0  0  0  0
   -3.0000   -2.5981    0.0000 C   0  0  0  0  0  0  0  0  0  0  0  0
   -3.7500   -1.2990    0.0000 O   0  0  0  0  0  0  0  0  0  0  0  0
   -3.7500   -3.8971    0.0000 C   0  0  0  0  0  0  0  0  0  0  0  0
   -3.0000   -5.1962    0.0000 C   0  0  0  0  0  0  0  0  0  0  0  0
   -4.4918   -5.3529    0.0000 C   0  0  0  0  0  0  0  0  0  0  0  0
   -3.4635   -6.6227    0.0000 C   0  0  0  0  0  0  0  0  0  0  0  0
   -4.8901   -7.0863    0.0000 C   0  0  0  0  0  0  0  0  0  0  0  0
   -5.2020   -8.5535    0.0000 O   0  0  0  0  0  0  0  0  0  0  0  0
   -6.0048   -6.0826    0.0000 C   0  0  0  0  0  0  0  0  0  0  0  0
   -7.4314   -6.5461    0.0000 O   0  0  0  0  0  0  0  0  0  0  0  0
  2  1  1  1
  2  3  1  0
  4  3  1  6
  4  5  1  0
  5  6  1  1
  6  7  1  0
  7  8  1  0
  8  9  2  0
  9 10  1  0
 10 11  2  0
 10 12  1  0
 12 13  2  0
 13 14  1  0
 14 15  1  6
 14 16  1  0
 16 17  1  1
 16 18  1  0
 18 19  1  6
 18 20  1  0
 20 21  1  0
 21 22  1  6
 21 23  1  0
 23 24  1  6
 24 25  2  0
 24 26  1  0
 26 27  1  0
 23  2  1  0
 21  4  1  0
 16  5  1  0
 14  8  1  0
M  END
>  <assay_description>  (224) 
Inhibition of human BSEP expressed in baculovirus transfected fall armyworm Sf21 cell membranes vesicles assessed as reduction in ATP-dependent [3H]-taurocholate transport into vesicles incubated for 5 mins by Topcount based rapid filtration method

>  <molecule_pref_name>  (224) 
DESOXIMETASONE

>  <canonical_smiles>  (224) 
C[C@@H]1C[C@H]2[C@@H]3CCC4=CC(=O)C=C[C@]4(C)[C@@]3(F)[C@@H](O)C[C@]2(C)[C@H]1C(=O)CO

>  <pchembl_value>  (224) 
4.79

>  <standard_type>  (224) 
IC50

>  <standard_relation>  (224) 
=

>  <standard_value>  (224) 
16420.0

>  <standard_units>  (224) 
nM

>  <target_pref_name>  (224) 
Bile salt export pump

>  <target_organism>  (224) 
Homo sapiens

$$$$
CHEMBL1200963
     RDKit          2D

 30 31  0  0  0  0  0  0  0  0999 V2000
   -5.3734    1.7180    0.0000 C   0  0  0  0  0  0  0  0  0  0  0  0
   -5.8369    0.2914    0.0000 C   0  0  0  0  0  0  0  0  0  0  0  0
   -4.8332   -0.8233    0.0000 N   0  0  0  0  0  0  0  0  0  0  0  0
   -5.2967   -2.2499    0.0000 C   0  0  0  0  0  0  0  0  0  0  0  0
   -6.7640   -2.5618    0.0000 O   0  0  0  0  0  0  0  0  0  0  0  0
   -4.2930   -3.3646    0.0000 C   0  0  0  0  0  0  0  0  0  0  0  0
   -4.7566   -4.7912    0.0000 C   0  0  0  0  0  0  0  0  0  0  0  0
   -3.7529   -5.9059    0.0000 C   0  0  0  0  0  0  0  0  0  0  0  0
   -4.2164   -7.3325    0.0000 C   0  0  0  0  0  0  0  0  0  0  0  0
   -3.2127   -8.4472    0.0000 C   0  0  0  0  0  0  0  0  0  0  0  0
   -1.7455   -8.1353    0.0000 C   0  0  0  0  0  0  0  0  0  0  0  0
   -0.7418   -9.2501    0.0000 C   0  0  0  0  0  0  0  0  0  0  0  0
   -1.0537  -10.7173    0.0000 C   0  0  0  0  0  0  0  0  0  0  0  0
   -2.4240  -11.3274    0.0000 O   0  0  0  0  0  0  0  0  0  0  0  0
    0.2454  -11.4673    0.0000 C   0  0  0  0  0  0  0  0  0  0  0  0
    1.3601  -10.4636    0.0000 C   0  0  0  0  0  0  0  0  0  0  0  0
    2.8273  -10.7755    0.0000 O   0  0  0  0  0  0  0  0  0  0  0  0
    0.7500   -9.0933    0.0000 C   0  0  0  0  0  0  0  0  0  0  0  0
    1.5000   -7.7942    0.0000 C   0  0  0  0  0  0  0  0  0  0  0  0
    0.7500   -6.4952    0.0000 C   0  0  0  0  0  0  0  0  0  0  0  0
    1.5000   -5.1962    0.0000 C   0  0  0  0  0  0  0  0  0  0  0  0
    3.0000   -5.1962    0.0000 O   0  0  0  0  0  0  0  0  0  0  0  0
    0.7500   -3.8971    0.0000 C   0  0  0  0  0  0  0  0  0  0  0  0
    1.5000   -2.5981    0.0000 C   0  0  0  0  0  0  0  0  0  0  0  0
    0.7500   -1.2990    0.0000 C   0  0  0  0  0  0  0  0  0  0  0  0
    1.5000    0.0000    0.0000 C   0  0  0  0  0  0  0  0  0  0  0  0
    0.7500    1.2990    0.0000 C   0  0  0  0  0  0  0  0  0  0  0  0
   -0.7500    1.2990    0.0000 C   0  0  0  0  0  0  0  0  0  0  0  0
   -1.5000    0.0000    0.0000 C   0  0  0  0  0  0  0  0  0  0  0  0
   -0.7500   -1.2990    0.0000 C   0  0  0  0  0  0  0  0  0  0  0  0
  1  2  1  0
  2  3  1  0
  3  4  1  0
  4  5  2  0
  4  6  1  0
  6  7  1  0
  7  8  1  0
  8  9  1  0
  9 10  2  0
 10 11  1  0
 12 11  1  6
 12 13  1  0
 13 14  1  6
 13 15  1  0
 15 16  1  0
 16 17  1  6
 16 18  1  0
 18 19  1  1
 19 20  2  0
 20 21  1  0
 21 22  1  6
 21 23  1  0
 23 24  1  0
 24 25  1  0
 25 26  2  0
 26 27  1  0
 27 28  2  0
 28 29  1  0
 29 30  2  0
 18 12  1  0
 30 25  1  0
M  END
>  <assay_description>  (225) 
Inhibition of human BSEP overexpressed in Sf9 cell membrane vesicles assessed as uptake of [3H]-taurocholate in presence of ATP measured after 15 to 20 mins by membrane vesicle transport assay

>  <molecule_pref_name>  (225) 
BIMATOPROST

>  <canonical_smiles>  (225) 
CCNC(=O)CCC/C=C\C[C@H]1[C@@H](O)C[C@@H](O)[C@@H]1/C=C/[C@@H](O)CCc1ccccc1

>  <pchembl_value>  (225) 
4.39

>  <standard_type>  (225) 
IC50

>  <standard_relation>  (225) 
=

>  <standard_value>  (225) 
40400.0

>  <standard_units>  (225) 
nM

>  <target_pref_name>  (225) 
Bile salt export pump

>  <target_organism>  (225) 
Homo sapiens

$$$$
CHEMBL846
     RDKit          2D

 30 32  0  0  0  0  0  0  0  0999 V2000
    1.5000   -5.1962    0.0000 C   0  0  0  0  0  0  0  0  0  0  0  0
    3.0000   -5.1962    0.0000 C   0  0  0  0  0  0  0  0  0  0  0  0
    3.7500   -3.8971    0.0000 C   0  0  0  0  0  0  0  0  0  0  0  0
    3.0000   -2.5981    0.0000 C   0  0  0  0  0  0  0  0  0  0  0  0
    1.5000   -2.5981    0.0000 C   0  0  0  0  0  0  0  0  0  0  0  0
    0.7500   -1.2990    0.0000 C   0  0  0  0  0  0  0  0  0  0  0  0
    1.5000    0.0000    0.0000 C   0  0  0  0  0  0  0  0  0  0  0  0
    0.7500    1.2990    0.0000 C   0  0  0  0  0  0  0  0  0  0  0  0
   -0.7500    1.2990    0.0000 C   0  0  0  0  0  0  0  0  0  0  0  0
   -1.5000    0.0000    0.0000 C   0  0  0  0  0  0  0  0  0  0  0  0
   -2.3817    1.2135    0.0000 C   0  0  0  0  0  0  0  0  0  0  0  0
   -0.7500   -1.2990    0.0000 C   0  0  0  0  0  0  0  0  0  0  0  0
   -1.7537   -2.4138    0.0000 C   0  0  0  0  0  0  0  0  0  0  0  0
   -3.1240   -1.8037    0.0000 C   0  0  0  0  0  0  0  0  0  0  0  0
   -2.9672   -0.3119    0.0000 C   0  0  0  0  0  0  0  0  0  0  0  0
   -4.0819    0.6918    0.0000 C   0  0  0  0  0  0  0  0  0  0  0  0
   -5.5085    0.2283    0.0000 C   0  0  0  0  0  0  0  0  0  0  0  0
   -3.7701    2.1590    0.0000 C   0  0  0  0  0  0  0  0  0  0  0  0
   -4.8848    3.1627    0.0000 C   0  0  0  0  0  0  0  0  0  0  0  0
   -4.5729    4.6300    0.0000 C   0  0  0  0  0  0  0  0  0  0  0  0
   -5.6876    5.6337    0.0000 C   0  0  0  0  0  0  0  0  0  0  0  0
   -6.6913    4.5189    0.0000 C   0  0  0  0  0  0  0  0  0  0  0  0
   -4.6839    6.7484    0.0000 C   0  0  0  0  0  0  0  0  0  0  0  0
   -6.8024    6.6374    0.0000 O   0  0  0  0  0  0  0  0  0  0  0  0
    5.2500   -3.8971    0.0000 C   0  0  0  0  0  0  0  0  0  0  0  0
    6.0000   -5.1962    0.0000 C   0  0  0  0  0  0  0  0  0  0  0  0
    7.5000   -5.1962    0.0000 O   0  0  0  0  0  0  0  0  0  0  0  0
    5.2500   -6.4952    0.0000 C   0  0  0  0  0  0  0  0  0  0  0  0
    3.7500   -6.4952    0.0000 C   0  0  0  0  0  0  0  0  0  0  0  0
    3.0000   -7.7942    0.0000 O   0  0  0  0  0  0  0  0  0  0  0  0
  1  2  2  0
  2  3  1  0
  3  4  2  0
  4  5  1  0
  5  6  2  0
  6  7  1  0
  7  8  1  0
  8  9  1  0
  9 10  1  0
 10 11  1  6
 10 12  1  0
 12 13  1  6
 13 14  1  0
 15 14  1  6
 15 16  1  0
 16 17  1  6
 16 18  1  0
 18 19  1  0
 19 20  1  0
 20 21  1  0
 21 22  1  0
 21 23  1  0
 21 24  1  0
  3 25  1  0
 25 26  1  0
 26 27  1  1
 26 28  1  0
 28 29  1  0
 29 30  1  6
 29  2  1  0
 12  6  1  0
 15 10  1  0
M  END
>  <assay_description>  (226) 
Inhibition of human BSEP overexpressed in Sf9 cell membrane vesicles assessed as uptake of [3H]-taurocholate in presence of ATP measured after 15 to 20 mins by membrane vesicle transport assay

>  <molecule_pref_name>  (226) 
CALCITRIOL

>  <canonical_smiles>  (226) 
C=C1/C(=C\C=C2/CCC[C@@]3(C)[C@H]2CC[C@@H]3[C@H](C)CCCC(C)(C)O)C[C@@H](O)C[C@@H]1O

>  <pchembl_value>  (226) 
4.40

>  <standard_type>  (226) 
IC50

>  <standard_relation>  (226) 
=

>  <standard_value>  (226) 
39700.0

>  <standard_units>  (226) 
nM

>  <target_pref_name>  (226) 
Bile salt export pump

>  <target_organism>  (226) 
Homo sapiens

$$$$
CHEMBL4064157
     RDKit          2D

 27 27  0  0  0  0  0  0  0  0999 V2000
   10.9721   -2.5981    0.0000 C   0  0  0  0  0  0  0  0  0  0  0  0
    9.6731   -1.8481    0.0000 C   0  0  0  0  0  0  0  0  0  0  0  0
    8.3741   -2.5981    0.0000 C   0  0  0  0  0  0  0  0  0  0  0  0
    7.0750   -1.8481    0.0000 C   0  0  0  0  0  0  0  0  0  0  0  0
    5.7760   -2.5981    0.0000 C   0  0  0  0  0  0  0  0  0  0  0  0
    4.4769   -3.3481    0.0000 C   0  0  0  0  0  0  0  0  0  0  0  0
    6.5260   -3.8971    0.0000 O   0  0  0  0  0  0  0  0  0  0  0  0
    5.0260   -1.2990    0.0000 C   0  0  0  0  0  0  0  0  0  0  0  0
    3.5260   -1.2990    0.0000 C   0  0  0  0  0  0  0  0  0  0  0  0
    2.7760    0.0000    0.0000 C   0  0  0  0  0  0  0  0  0  0  0  0
    1.2760    0.0000    0.0000 C   0  0  0  0  0  0  0  0  0  0  0  0
    0.3943    1.2135    0.0000 C   0  0  0  0  0  0  0  0  0  0  0  0
    0.8578    2.6401    0.0000 O   0  0  0  0  0  0  0  0  0  0  0  0
   -1.0323    0.7500    0.0000 C   0  0  0  0  0  0  0  0  0  0  0  0
   -1.0323   -0.7500    0.0000 C   0  0  0  0  0  0  0  0  0  0  0  0
   -2.2458   -1.6317    0.0000 O   0  0  0  0  0  0  0  0  0  0  0  0
    0.3943   -1.2135    0.0000 C   0  0  0  0  0  0  0  0  0  0  0  0
    0.8578   -2.6401    0.0000 C   0  0  0  0  0  0  0  0  0  0  0  0
   -0.1459   -3.7548    0.0000 C   0  0  0  0  0  0  0  0  0  0  0  0
    0.3177   -5.1814    0.0000 C   0  0  0  0  0  0  0  0  0  0  0  0
   -0.6860   -6.2961    0.0000 C   0  0  0  0  0  0  0  0  0  0  0  0
   -0.2225   -7.7227    0.0000 C   0  0  0  0  0  0  0  0  0  0  0  0
   -1.2262   -8.8374    0.0000 C   0  0  0  0  0  0  0  0  0  0  0  0
   -0.7627  -10.2640    0.0000 C   0  0  0  0  0  0  0  0  0  0  0  0
    0.7045  -10.5759    0.0000 O   0  0  0  0  0  0  0  0  0  0  0  0
   -1.7664  -11.3787    0.0000 O   0  0  0  0  0  0  0  0  0  0  0  0
   -1.3029  -12.8053    0.0000 C   0  0  0  0  0  0  0  0  0  0  0  0
  1  2  1  0
  2  3  1  0
  3  4  1  0
  4  5  1  0
  5  6  1  1
  5  7  1  0
  5  8  1  0
  8  9  1  0
  9 10  2  0
 11 10  1  6
 11 12  1  0
 12 13  1  1
 12 14  1  0
 14 15  1  0
 15 16  2  0
 15 17  1  0
 17 18  1  1
 18 19  1  0
 19 20  1  0
 20 21  1  0
 21 22  1  0
 22 23  1  0
 23 24  1  0
 24 25  2  0
 24 26  1  0
 26 27  1  0
 17 11  1  0
M  END
>  <assay_description>  (227) 
Inhibition of human BSEP overexpressed in Sf9 cell membrane vesicles assessed as uptake of [3H]-taurocholate in presence of ATP measured after 15 to 20 mins by membrane vesicle transport assay

>  <molecule_pref_name>  (227) 
None

>  <canonical_smiles>  (227) 
CCCC[C@](C)(O)C/C=C/[C@H]1[C@H](O)CC(=O)[C@@H]1CCCCCCC(=O)OC

>  <pchembl_value>  (227) 
4.56

>  <standard_type>  (227) 
IC50

>  <standard_relation>  (227) 
=

>  <standard_value>  (227) 
27700.0

>  <standard_units>  (227) 
nM

>  <target_pref_name>  (227) 
Bile salt export pump

>  <target_organism>  (227) 
Homo sapiens

$$$$
CHEMBL1370
     RDKit          2D

 31 35  0  0  0  0  0  0  0  0999 V2000
   -7.4687  -11.2013    0.0000 C   0  0  0  0  0  0  0  0  0  0  0  0
   -6.5870   -9.9877    0.0000 C   0  0  0  0  0  0  0  0  0  0  0  0
   -5.0952  -10.1445    0.0000 C   0  0  0  0  0  0  0  0  0  0  0  0
   -4.2135   -8.9310    0.0000 C   0  0  0  0  0  0  0  0  0  0  0  0
   -2.7135   -8.9310    0.0000 O   0  0  0  0  0  0  0  0  0  0  0  0
   -2.2500   -7.5044    0.0000 C   0  0  0  0  0  0  0  0  0  0  0  0
   -1.0365   -6.6227    0.0000 C   0  0  0  0  0  0  0  0  0  0  0  0
   -1.5000   -5.1962    0.0000 C   0  0  0  0  0  0  0  0  0  0  0  0
   -0.7500   -3.8971    0.0000 C   0  0  0  0  0  0  0  0  0  0  0  0
    0.7500   -3.8971    0.0000 C   0  0  0  0  0  0  0  0  0  0  0  0
    1.5000   -2.5981    0.0000 C   0  0  0  0  0  0  0  0  0  0  0  0
    0.7500   -1.2990    0.0000 C   0  0  0  0  0  0  0  0  0  0  0  0
    1.5000    0.0000    0.0000 C   0  0  0  0  0  0  0  0  0  0  0  0
    0.7500    1.2990    0.0000 C   0  0  0  0  0  0  0  0  0  0  0  0
    1.5000    2.5981    0.0000 O   0  0  0  0  0  0  0  0  0  0  0  0
   -0.7500    1.2990    0.0000 C   0  0  0  0  0  0  0  0  0  0  0  0
   -1.5000    0.0000    0.0000 C   0  0  0  0  0  0  0  0  0  0  0  0
   -0.7500   -1.2990    0.0000 C   0  0  0  0  0  0  0  0  0  0  0  0
   -2.2500   -1.2990    0.0000 C   0  0  0  0  0  0  0  0  0  0  0  0
   -1.5000   -2.5981    0.0000 C   0  0  0  0  0  0  0  0  0  0  0  0
   -3.0000   -2.5981    0.0000 C   0  0  0  0  0  0  0  0  0  0  0  0
   -3.7500   -1.2990    0.0000 O   0  0  0  0  0  0  0  0  0  0  0  0
   -3.7500   -3.8971    0.0000 C   0  0  0  0  0  0  0  0  0  0  0  0
   -3.0000   -5.1962    0.0000 C   0  0  0  0  0  0  0  0  0  0  0  0
   -3.7894   -5.0852    0.0000 C   0  0  0  0  0  0  0  0  0  0  0  0
   -3.4635   -6.6227    0.0000 C   0  0  0  0  0  0  0  0  0  0  0  0
   -4.6771   -5.7411    0.0000 C   0  0  0  0  0  0  0  0  0  0  0  0
   -4.5937   -4.9483    0.0000 O   0  0  0  0  0  0  0  0  0  0  0  0
   -6.0474   -6.3512    0.0000 C   0  0  0  0  0  0  0  0  0  0  0  0
   -7.2609   -5.4695    0.0000 O   0  0  0  0  0  0  0  0  0  0  0  0
   -4.6771   -7.5044    0.0000 O   0  0  0  0  0  0  0  0  0  0  0  0
  1  2  1  0
  2  3  1  0
  3  4  1  0
  4  5  1  0
  5  6  1  0
  6  7  1  1
  8  7  1  6
  8  9  1  0
  9 10  1  1
 10 11  1  0
 11 12  1  0
 12 13  2  0
 13 14  1  0
 14 15  2  0
 14 16  1  0
 16 17  2  0
 17 18  1  0
 18 19  1  6
 18 20  1  0
 20 21  1  6
 21 22  1  6
 21 23  1  0
 23 24  1  0
 24 25  1  6
 24 26  1  0
 26 27  1  6
 27 28  2  0
 27 29  1  0
 29 30  1  0
 26 31  1  0
 31  4  1  0
 26  6  1  0
 24  8  1  0
 20  9  1  0
 18 12  1  0
M  END
>  <assay_description>  (228) 
Inhibition of human BSEP overexpressed in Sf9 cell membrane vesicles assessed as uptake of [3H]-taurocholate in presence of ATP measured after 15 to 20 mins by membrane vesicle transport assay

>  <molecule_pref_name>  (228) 
BUDESONIDE

>  <canonical_smiles>  (228) 
CCCC1O[C@@H]2C[C@H]3[C@@H]4CCC5=CC(=O)C=C[C@]5(C)[C@H]4[C@@H](O)C[C@]3(C)[C@]2(C(=O)CO)O1

>  <pchembl_value>  (228) 
4.34

>  <standard_type>  (228) 
IC50

>  <standard_relation>  (228) 
=

>  <standard_value>  (228) 
46000.0

>  <standard_units>  (228) 
nM

>  <target_pref_name>  (228) 
Bile salt export pump

>  <target_organism>  (228) 
Homo sapiens

$$$$
CHEMBL1200792
     RDKit          2D

 31 33  0  0  0  0  0  0  0  0999 V2000
    9.2500    0.0000    0.0000 Cl  0  0  0  0  0  0  0  0  0  0  0  0
    8.2500  -11.6913    0.0000 O   0  0  0  0  0  0  0  0  0  0  0  0
    7.5000  -10.3923    0.0000 C   0  0  0  0  0  0  0  0  0  0  0  0
    8.2500   -9.0933    0.0000 C   0  0  0  0  0  0  0  0  0  0  0  0
    7.5000   -7.7942    0.0000 N   0  0  0  0  0  0  0  0  0  0  0  0
    6.0000   -7.7942    0.0000 C   0  0  0  0  0  0  0  0  0  0  0  0
    5.2500   -6.4952    0.0000 C   0  0  0  0  0  0  0  0  0  0  0  0
    6.0000   -5.1962    0.0000 N   0  0  0  0  0  0  0  0  0  0  0  0
    5.2500   -3.8971    0.0000 C   0  0  0  0  0  0  0  0  0  0  0  0
    3.7500   -3.8971    0.0000 C   0  0  0  0  0  0  0  0  0  0  0  0
    3.0000   -2.5981    0.0000 C   0  0  0  0  0  0  0  0  0  0  0  0
    1.5000   -2.5981    0.0000 N   0  0  0  0  0  0  0  0  0  0  0  0
    0.7500   -1.2990    0.0000 C   0  0  0  0  0  0  0  0  0  0  0  0
    1.5000    0.0000    0.0000 C   0  0  0  0  0  0  0  0  0  0  0  0
    0.7500    1.2990    0.0000 C   0  0  0  0  0  0  0  0  0  0  0  0
   -0.7500    1.2990    0.0000 C   0  0  0  0  0  0  0  0  0  0  0  0
   -1.5000    0.0000    0.0000 C   0  0  0  0  0  0  0  0  0  0  0  0
   -0.7500   -1.2990    0.0000 C   0  0  0  0  0  0  0  0  0  0  0  0
   -1.5000   -2.5981    0.0000 S   0  0  0  0  0  0  0  0  0  0  0  0
   -0.7500   -3.8971    0.0000 C   0  0  0  0  0  0  0  0  0  0  0  0
   -1.5000   -5.1962    0.0000 C   0  0  0  0  0  0  0  0  0  0  0  0
   -0.7500   -6.4952    0.0000 C   0  0  0  0  0  0  0  0  0  0  0  0
    0.7500   -6.4952    0.0000 C   0  0  0  0  0  0  0  0  0  0  0  0
    1.5000   -7.7942    0.0000 C   0  0  0  0  0  0  0  0  0  0  0  0
    2.2500   -9.0933    0.0000 F   0  0  0  0  0  0  0  0  0  0  0  0
    0.2010   -8.5442    0.0000 F   0  0  0  0  0  0  0  0  0  0  0  0
    2.7990   -7.0442    0.0000 F   0  0  0  0  0  0  0  0  0  0  0  0
    1.5000   -5.1962    0.0000 C   0  0  0  0  0  0  0  0  0  0  0  0
    0.7500   -3.8971    0.0000 C   0  0  0  0  0  0  0  0  0  0  0  0
    7.5000   -5.1962    0.0000 C   0  0  0  0  0  0  0  0  0  0  0  0
    8.2500   -6.4952    0.0000 C   0  0  0  0  0  0  0  0  0  0  0  0
  2  3  1  0
  3  4  1  0
  4  5  1  0
  5  6  1  0
  6  7  1  0
  7  8  1  0
  8  9  1  0
  9 10  1  0
 10 11  1  0
 11 12  1  0
 12 13  1  0
 13 14  2  0
 14 15  1  0
 15 16  2  0
 16 17  1  0
 17 18  2  0
 18 19  1  0
 19 20  1  0
 20 21  2  0
 21 22  1  0
 22 23  2  0
 23 24  1  0
 24 25  1  0
 24 26  1  0
 24 27  1  0
 23 28  1  0
 28 29  2  0
  8 30  1  0
 30 31  1  0
 31  5  1  0
 29 12  1  0
 18 13  1  0
 29 20  1  0
M  END
>  <assay_description>  (229) 
Inhibition of human BSEP overexpressed in Sf9 cell membrane vesicles assessed as uptake of [3H]-taurocholate in presence of ATP measured after 15 to 20 mins by membrane vesicle transport assay

>  <molecule_pref_name>  (229) 
FLUPHENAZINE HYDROCHLORIDE

>  <canonical_smiles>  (229) 
Cl.OCCN1CCN(CCCN2c3ccccc3Sc3ccc(C(F)(F)F)cc32)CC1

>  <pchembl_value>  (229) 
4.06

>  <standard_type>  (229) 
IC50

>  <standard_relation>  (229) 
=

>  <standard_value>  (229) 
87300.0

>  <standard_units>  (229) 
nM

>  <target_pref_name>  (229) 
Bile salt export pump

>  <target_organism>  (229) 
Homo sapiens

$$$$
CHEMBL296419
     RDKit          2D

 34 38  0  0  0  0  0  0  0  0999 V2000
  -12.9904   -9.6073    0.0000 C   0  0  0  0  0  0  0  0  0  0  0  0
  -11.6913  -10.3573    0.0000 O   0  0  0  0  0  0  0  0  0  0  0  0
  -10.3923   -9.6073    0.0000 C   0  0  0  0  0  0  0  0  0  0  0  0
  -10.3923   -8.1073    0.0000 C   0  0  0  0  0  0  0  0  0  0  0  0
   -9.0933   -7.3573    0.0000 C   0  0  0  0  0  0  0  0  0  0  0  0
   -7.7942   -8.1073    0.0000 C   0  0  0  0  0  0  0  0  0  0  0  0
   -6.4952   -7.3573    0.0000 C   0  0  0  0  0  0  0  0  0  0  0  0
   -5.1962   -8.1073    0.0000 C   0  0  0  0  0  0  0  0  0  0  0  0
   -3.8971   -7.3573    0.0000 N   0  0  0  0  0  0  0  0  0  0  0  0
   -2.5981   -8.1073    0.0000 C   0  0  0  0  0  0  0  0  0  0  0  0
   -1.2990   -7.3573    0.0000 C   0  0  0  0  0  0  0  0  0  0  0  0
   -1.2990   -5.8573    0.0000 C   0  0  0  0  0  0  0  0  0  0  0  0
   -0.0000   -5.1073    0.0000 N   0  0  0  0  0  0  0  0  0  0  0  0
   -0.0000   -3.6073    0.0000 C   0  0  0  0  0  0  0  0  0  0  0  0
    1.2135   -2.7256    0.0000 N   0  0  0  0  0  0  0  0  0  0  0  0
    0.7500   -1.2990    0.0000 C   0  0  0  0  0  0  0  0  0  0  0  0
    1.5000    0.0000    0.0000 C   0  0  0  0  0  0  0  0  0  0  0  0
    0.7500    1.2990    0.0000 C   0  0  0  0  0  0  0  0  0  0  0  0
   -0.7500    1.2990    0.0000 C   0  0  0  0  0  0  0  0  0  0  0  0
   -1.5000    0.0000    0.0000 C   0  0  0  0  0  0  0  0  0  0  0  0
   -0.7500   -1.2990    0.0000 C   0  0  0  0  0  0  0  0  0  0  0  0
   -1.2135   -2.7256    0.0000 N   0  0  0  0  0  0  0  0  0  0  0  0
   -2.6401   -3.1891    0.0000 C   0  0  0  0  0  0  0  0  0  0  0  0
   -3.7548   -2.1855    0.0000 C   0  0  0  0  0  0  0  0  0  0  0  0
   -3.4430   -0.7182    0.0000 C   0  0  0  0  0  0  0  0  0  0  0  0
   -4.5577    0.2855    0.0000 C   0  0  0  0  0  0  0  0  0  0  0  0
   -5.9843   -0.1781    0.0000 C   0  0  0  0  0  0  0  0  0  0  0  0
   -7.0990    0.8256    0.0000 F   0  0  0  0  0  0  0  0  0  0  0  0
   -6.2961   -1.6453    0.0000 C   0  0  0  0  0  0  0  0  0  0  0  0
   -5.1814   -2.6490    0.0000 C   0  0  0  0  0  0  0  0  0  0  0  0
   -2.5981   -5.1073    0.0000 C   0  0  0  0  0  0  0  0  0  0  0  0
   -3.8971   -5.8573    0.0000 C   0  0  0  0  0  0  0  0  0  0  0  0
   -7.7942   -9.6073    0.0000 C   0  0  0  0  0  0  0  0  0  0  0  0
   -9.0933  -10.3573    0.0000 C   0  0  0  0  0  0  0  0  0  0  0  0
  1  2  1  0
  2  3  1  0
  3  4  2  0
  4  5  1  0
  5  6  2  0
  6  7  1  0
  7  8  1  0
  8  9  1  0
  9 10  1  0
 10 11  1  0
 11 12  1  0
 12 13  1  0
 13 14  1  0
 14 15  2  0
 15 16  1  0
 16 17  2  0
 17 18  1  0
 18 19  2  0
 19 20  1  0
 20 21  2  0
 21 22  1  0
 22 23  1  0
 23 24  1  0
 24 25  2  0
 25 26  1  0
 26 27  2  0
 27 28  1  0
 27 29  1  0
 29 30  2  0
 12 31  1  0
 31 32  1  0
  6 33  1  0
 33 34  2  0
 34  3  1  0
 32  9  1  0
 22 14  1  0
 30 24  1  0
 21 16  1  0
M  END
>  <assay_description>  (230) 
Inhibition of human BSEP overexpressed in Sf9 cell membrane vesicles assessed as uptake of [3H]-taurocholate in presence of ATP measured after 15 to 20 mins by membrane vesicle transport assay

>  <molecule_pref_name>  (230) 
ASTEMIZOLE

>  <canonical_smiles>  (230) 
COc1ccc(CCN2CCC(Nc3nc4ccccc4n3Cc3ccc(F)cc3)CC2)cc1

>  <pchembl_value>  (230) 
4.23

>  <standard_type>  (230) 
IC50

>  <standard_relation>  (230) 
=

>  <standard_value>  (230) 
58800.0

>  <standard_units>  (230) 
nM

>  <target_pref_name>  (230) 
Bile salt export pump

>  <target_organism>  (230) 
Homo sapiens

$$$$
CHEMBL717
     RDKit          2D

 28 31  0  0  0  0  0  0  0  0999 V2000
   -7.4177   -6.2842    0.0000 C   0  0  0  0  0  0  0  0  0  0  0  0
   -6.0474   -6.8943    0.0000 C   0  0  0  0  0  0  0  0  0  0  0  0
   -6.0646   -7.8783    0.0000 O   0  0  0  0  0  0  0  0  0  0  0  0
   -4.8338   -6.0126    0.0000 O   0  0  0  0  0  0  0  0  0  0  0  0
   -3.4635   -6.6227    0.0000 C   0  0  0  0  0  0  0  0  0  0  0  0
   -4.2135   -7.9218    0.0000 C   0  0  0  0  0  0  0  0  0  0  0  0
   -5.1903   -8.0417    0.0000 C   0  0  0  0  0  0  0  0  0  0  0  0
   -3.4635   -9.2208    0.0000 O   0  0  0  0  0  0  0  0  0  0  0  0
   -2.2500   -7.5044    0.0000 C   0  0  0  0  0  0  0  0  0  0  0  0
   -1.0365   -6.6227    0.0000 C   0  0  0  0  0  0  0  0  0  0  0  0
   -1.5000   -5.1962    0.0000 C   0  0  0  0  0  0  0  0  0  0  0  0
   -0.7500   -3.8971    0.0000 C   0  0  0  0  0  0  0  0  0  0  0  0
    0.7500   -3.8971    0.0000 C   0  0  0  0  0  0  0  0  0  0  0  0
    1.5000   -2.5981    0.0000 C   0  0  0  0  0  0  0  0  0  0  0  0
    3.0000   -2.5981    0.0000 C   0  0  0  0  0  0  0  0  0  0  0  0
    0.7500   -1.2990    0.0000 C   0  0  0  0  0  0  0  0  0  0  0  0
    1.5000    0.0000    0.0000 C   0  0  0  0  0  0  0  0  0  0  0  0
    0.7500    1.2990    0.0000 C   0  0  0  0  0  0  0  0  0  0  0  0
    1.5000    2.5981    0.0000 O   0  0  0  0  0  0  0  0  0  0  0  0
   -0.7500    1.2990    0.0000 C   0  0  0  0  0  0  0  0  0  0  0  0
   -1.5000    0.0000    0.0000 C   0  0  0  0  0  0  0  0  0  0  0  0
   -0.7500   -1.2990    0.0000 C   0  0  0  0  0  0  0  0  0  0  0  0
   -2.2500   -1.2990    0.0000 C   0  0  0  0  0  0  0  0  0  0  0  0
   -1.5000   -2.5981    0.0000 C   0  0  0  0  0  0  0  0  0  0  0  0
   -3.0000   -2.5981    0.0000 C   0  0  0  0  0  0  0  0  0  0  0  0
   -3.7500   -3.8971    0.0000 C   0  0  0  0  0  0  0  0  0  0  0  0
   -3.0000   -5.1962    0.0000 C   0  0  0  0  0  0  0  0  0  0  0  0
   -4.4854   -4.9873    0.0000 C   0  0  0  0  0  0  0  0  0  0  0  0
  1  2  1  0
  2  3  2  0
  2  4  1  0
  5  4  1  1
  5  6  1  0
  6  7  1  0
  6  8  2  0
  5  9  1  0
  9 10  1  0
 11 10  1  6
 11 12  1  0
 12 13  1  1
 13 14  1  0
 14 15  1  1
 14 16  1  0
 16 17  2  0
 17 18  1  0
 18 19  2  0
 18 20  1  0
 20 21  1  0
 21 22  1  0
 22 23  1  6
 22 24  1  0
 24 25  1  6
 25 26  1  0
 26 27  1  0
 27 28  1  6
 27  5  1  0
 27 11  1  0
 24 12  1  0
 22 16  1  0
M  END
>  <assay_description>  (231) 
Inhibition of human BSEP overexpressed in Sf9 cell membrane vesicles assessed as uptake of [3H]-taurocholate in presence of ATP measured after 15 to 20 mins by membrane vesicle transport assay

>  <molecule_pref_name>  (231) 
MEDROXYPROGESTERONE ACETATE

>  <canonical_smiles>  (231) 
CC(=O)O[C@]1(C(C)=O)CC[C@H]2[C@@H]3C[C@H](C)C4=CC(=O)CC[C@]4(C)[C@H]3CC[C@@]21C

>  <pchembl_value>  (231) 
4.80

>  <standard_type>  (231) 
IC50

>  <standard_relation>  (231) 
=

>  <standard_value>  (231) 
15700.0

>  <standard_units>  (231) 
nM

>  <target_pref_name>  (231) 
Bile salt export pump

>  <target_organism>  (231) 
Homo sapiens

$$$$
CHEMBL1480
     RDKit          2D

 25 26  0  0  0  0  0  0  0  0999 V2000
    6.0000   -2.5981    0.0000 C   0  0  0  0  0  0  0  0  0  0  0  0
    5.2500   -1.2990    0.0000 C   0  0  0  0  0  0  0  0  0  0  0  0
    3.7500   -1.2990    0.0000 O   0  0  0  0  0  0  0  0  0  0  0  0
    3.0000    0.0000    0.0000 C   0  0  0  0  0  0  0  0  0  0  0  0
    3.7500    1.2990    0.0000 O   0  0  0  0  0  0  0  0  0  0  0  0
    1.5000    0.0000    0.0000 C   0  0  0  0  0  0  0  0  0  0  0  0
    0.7500   -1.2990    0.0000 C   0  0  0  0  0  0  0  0  0  0  0  0
    1.5000   -2.5981    0.0000 C   0  0  0  0  0  0  0  0  0  0  0  0
   -0.7500   -1.2990    0.0000 N   0  0  0  0  0  0  0  0  0  0  0  0
   -1.5000    0.0000    0.0000 C   0  0  0  0  0  0  0  0  0  0  0  0
   -3.0000    0.0000    0.0000 C   0  0  0  0  0  0  0  0  0  0  0  0
   -0.7500    1.2990    0.0000 C   0  0  0  0  0  0  0  0  0  0  0  0
   -1.5000    2.5981    0.0000 C   0  0  0  0  0  0  0  0  0  0  0  0
   -1.1155    3.5040    0.0000 O   0  0  0  0  0  0  0  0  0  0  0  0
   -3.0000    2.5981    0.0000 O   0  0  0  0  0  0  0  0  0  0  0  0
   -3.7500    3.8971    0.0000 C   0  0  0  0  0  0  0  0  0  0  0  0
    0.7500    1.2990    0.0000 C   0  0  0  0  0  0  0  0  0  0  0  0
    1.5000    2.5981    0.0000 C   0  0  0  0  0  0  0  0  0  0  0  0
    3.0000    2.5981    0.0000 C   0  0  0  0  0  0  0  0  0  0  0  0
    3.7500    3.8971    0.0000 C   0  0  0  0  0  0  0  0  0  0  0  0
    3.0000    5.1962    0.0000 C   0  0  0  0  0  0  0  0  0  0  0  0
    1.5000    5.1962    0.0000 C   0  0  0  0  0  0  0  0  0  0  0  0
    0.7500    6.4952    0.0000 Cl  0  0  0  0  0  0  0  0  0  0  0  0
    0.7500    3.8971    0.0000 C   0  0  0  0  0  0  0  0  0  0  0  0
   -0.2268    4.0171    0.0000 Cl  0  0  0  0  0  0  0  0  0  0  0  0
  1  2  1  0
  2  3  1  0
  3  4  1  0
  4  5  2  0
  4  6  1  0
  6  7  2  0
  7  8  1  0
  7  9  1  0
  9 10  1  0
 10 11  1  0
 10 12  2  0
 12 13  1  0
 13 14  2  0
 13 15  1  0
 15 16  1  0
 12 17  1  0
 17 18  1  0
 18 19  2  0
 19 20  1  0
 20 21  2  0
 21 22  1  0
 22 23  1  0
 22 24  2  0
 24 25  1  0
 17  6  1  0
 24 18  1  0
M  END
>  <assay_description>  (232) 
Inhibition of human BSEP overexpressed in Sf9 cell membrane vesicles assessed as uptake of [3H]-taurocholate in presence of ATP measured after 15 to 20 mins by membrane vesicle transport assay

>  <molecule_pref_name>  (232) 
FELODIPINE

>  <canonical_smiles>  (232) 
CCOC(=O)C1=C(C)NC(C)=C(C(=O)OC)C1c1cccc(Cl)c1Cl

>  <pchembl_value>  (232) 
4.16

>  <standard_type>  (232) 
IC50

>  <standard_relation>  (232) 
=

>  <standard_value>  (232) 
69700.0

>  <standard_units>  (232) 
nM

>  <target_pref_name>  (232) 
Bile salt export pump

>  <target_organism>  (232) 
Homo sapiens

$$$$
CHEMBL772
     RDKit          2D

 44 49  0  0  0  0  0  0  0  0999 V2000
    6.0676   -8.0157    0.0000 C   0  0  0  0  0  0  0  0  0  0  0  0
    4.6973   -8.6258    0.0000 O   0  0  0  0  0  0  0  0  0  0  0  0
    3.4838   -7.7441    0.0000 C   0  0  0  0  0  0  0  0  0  0  0  0
    3.6406   -6.2523    0.0000 O   0  0  0  0  0  0  0  0  0  0  0  0
    2.1135   -8.3542    0.0000 C   0  0  0  0  0  0  0  0  0  0  0  0
    0.8999   -7.4725    0.0000 C   0  0  0  0  0  0  0  0  0  0  0  0
    1.0567   -5.9808    0.0000 C   0  0  0  0  0  0  0  0  0  0  0  0
   -0.1568   -5.0991    0.0000 C   0  0  0  0  0  0  0  0  0  0  0  0
   -0.0000   -3.6073    0.0000 C   0  0  0  0  0  0  0  0  0  0  0  0
    1.2135   -2.7256    0.0000 N   0  0  0  0  0  0  0  0  0  0  0  0
    0.7500   -1.2990    0.0000 C   0  0  0  0  0  0  0  0  0  0  0  0
    1.5000    0.0000    0.0000 C   0  0  0  0  0  0  0  0  0  0  0  0
    0.7500    1.2990    0.0000 C   0  0  0  0  0  0  0  0  0  0  0  0
    1.5000    2.5981    0.0000 O   0  0  0  0  0  0  0  0  0  0  0  0
    3.0000    2.5981    0.0000 C   0  0  0  0  0  0  0  0  0  0  0  0
   -0.7500    1.2990    0.0000 C   0  0  0  0  0  0  0  0  0  0  0  0
   -1.5000    0.0000    0.0000 C   0  0  0  0  0  0  0  0  0  0  0  0
   -0.7500   -1.2990    0.0000 C   0  0  0  0  0  0  0  0  0  0  0  0
   -1.2135   -2.7256    0.0000 C   0  0  0  0  0  0  0  0  0  0  0  0
   -2.5838   -3.3357    0.0000 C   0  0  0  0  0  0  0  0  0  0  0  0
   -2.7406   -4.8275    0.0000 C   0  0  0  0  0  0  0  0  0  0  0  0
   -1.5271   -5.7092    0.0000 N   0  0  0  0  0  0  0  0  0  0  0  0
   -1.6839   -7.2010    0.0000 C   0  0  0  0  0  0  0  0  0  0  0  0
   -0.4704   -8.0826    0.0000 C   0  0  0  0  0  0  0  0  0  0  0  0
   -0.6272   -9.5744    0.0000 C   0  0  0  0  0  0  0  0  0  0  0  0
    0.5864  -10.4561    0.0000 C   0  0  0  0  0  0  0  0  0  0  0  0
    0.4296  -11.9479    0.0000 O   0  0  0  0  0  0  0  0  0  0  0  0
   -0.9408  -12.5580    0.0000 C   0  0  0  0  0  0  0  0  0  0  0  0
   -2.1543  -11.6763    0.0000 O   0  0  0  0  0  0  0  0  0  0  0  0
   -1.0975  -14.0498    0.0000 C   0  0  0  0  0  0  0  0  0  0  0  0
   -2.4679  -14.6599    0.0000 C   0  0  0  0  0  0  0  0  0  0  0  0
   -2.6247  -16.1517    0.0000 C   0  0  0  0  0  0  0  0  0  0  0  0
   -3.9950  -16.7618    0.0000 O   0  0  0  0  0  0  0  0  0  0  0  0
   -5.2085  -15.8801    0.0000 C   0  0  0  0  0  0  0  0  0  0  0  0
   -1.4111  -17.0333    0.0000 C   0  0  0  0  0  0  0  0  0  0  0  0
   -1.5679  -18.5251    0.0000 O   0  0  0  0  0  0  0  0  0  0  0  0
   -0.3544  -19.4068    0.0000 C   0  0  0  0  0  0  0  0  0  0  0  0
   -0.0408  -16.4232    0.0000 C   0  0  0  0  0  0  0  0  0  0  0  0
    1.1727  -17.3049    0.0000 O   0  0  0  0  0  0  0  0  0  0  0  0
    2.5430  -16.6948    0.0000 C   0  0  0  0  0  0  0  0  0  0  0  0
    0.1160  -14.9315    0.0000 C   0  0  0  0  0  0  0  0  0  0  0  0
    1.9567   -9.8460    0.0000 C   0  0  0  0  0  0  0  0  0  0  0  0
    3.1702  -10.7277    0.0000 O   0  0  0  0  0  0  0  0  0  0  0  0
    3.0134  -12.2195    0.0000 C   0  0  0  0  0  0  0  0  0  0  0  0
  1  2  1  0
  2  3  1  0
  3  4  2  0
  5  3  1  6
  5  6  1  0
  6  7  1  6
  8  7  1  1
  8  9  1  0
  9 10  1  0
 10 11  1  0
 11 12  2  0
 12 13  1  0
 13 14  1  0
 14 15  1  0
 13 16  2  0
 16 17  1  0
 17 18  2  0
 18 19  1  0
 19 20  1  0
 20 21  1  0
 21 22  1  0
 22 23  1  0
 24 23  1  6
 24 25  1  0
 25 26  1  0
 26 27  1  6
 27 28  1  0
 28 29  2  0
 28 30  1  0
 30 31  2  0
 31 32  1  0
 32 33  1  0
 33 34  1  0
 32 35  2  0
 35 36  1  0
 36 37  1  0
 35 38  1  0
 38 39  1  0
 39 40  1  0
 38 41  2  0
 26 42  1  0
 42 43  1  1
 43 44  1  0
 42  5  1  0
 24  6  1  0
 41 30  1  0
 22  8  1  0
 19  9  2  0
 18 11  1  0
M  END
>  <assay_description>  (233) 
Inhibition of human BSEP overexpressed in Sf9 cell membrane vesicles assessed as uptake of [3H]-taurocholate in presence of ATP measured after 15 to 20 mins by membrane vesicle transport assay

>  <molecule_pref_name>  (233) 
RESERPINE

>  <canonical_smiles>  (233) 
COC(=O)[C@H]1[C@H]2C[C@@H]3c4[nH]c5cc(OC)ccc5c4CCN3C[C@H]2C[C@@H](OC(=O)c2cc(OC)c(OC)c(OC)c2)[C@@H]1OC

>  <pchembl_value>  (233) 
5.08

>  <standard_type>  (233) 
IC50

>  <standard_relation>  (233) 
=

>  <standard_value>  (233) 
8350.0

>  <standard_units>  (233) 
nM

>  <target_pref_name>  (233) 
Bile salt export pump

>  <target_organism>  (233) 
Homo sapiens

$$$$
CHEMBL998
     RDKit          2D

 27 30  0  0  0  0  0  0  0  0999 V2000
   -9.8815    2.0638    0.0000 C   0  0  0  0  0  0  0  0  0  0  0  0
   -9.4393    0.6305    0.0000 C   0  0  0  0  0  0  0  0  0  0  0  0
   -7.9769    0.2967    0.0000 O   0  0  0  0  0  0  0  0  0  0  0  0
   -7.5348   -1.1367    0.0000 C   0  0  0  0  0  0  0  0  0  0  0  0
   -8.5551   -2.2362    0.0000 O   0  0  0  0  0  0  0  0  0  0  0  0
   -6.0724   -1.4704    0.0000 N   0  0  0  0  0  0  0  0  0  0  0  0
   -5.0522   -0.3709    0.0000 C   0  0  0  0  0  0  0  0  0  0  0  0
   -3.5898   -0.7046    0.0000 C   0  0  0  0  0  0  0  0  0  0  0  0
   -3.1476   -2.1380    0.0000 C   0  0  0  0  0  0  0  0  0  0  0  0
   -1.6852   -2.4718    0.0000 C   0  0  0  0  0  0  0  0  0  0  0  0
   -1.3515   -3.9342    0.0000 C   0  0  0  0  0  0  0  0  0  0  0  0
   -2.5908   -4.7792    0.0000 C   0  0  0  0  0  0  0  0  0  0  0  0
   -2.4787   -6.2750    0.0000 C   0  0  0  0  0  0  0  0  0  0  0  0
   -1.1273   -6.9258    0.0000 C   0  0  0  0  0  0  0  0  0  0  0  0
   -1.0152   -8.4216    0.0000 Cl  0  0  0  0  0  0  0  0  0  0  0  0
    0.1121   -6.0808    0.0000 C   0  0  0  0  0  0  0  0  0  0  0  0
   -0.0000   -4.5850    0.0000 C   0  0  0  0  0  0  0  0  0  0  0  0
    1.3515   -3.9342    0.0000 C   0  0  0  0  0  0  0  0  0  0  0  0
    1.6852   -2.4718    0.0000 C   0  0  0  0  0  0  0  0  0  0  0  0
    0.7500   -1.2990    0.0000 C   0  0  0  0  0  0  0  0  0  0  0  0
    1.5000    0.0000    0.0000 C   0  0  0  0  0  0  0  0  0  0  0  0
    0.7500    1.2990    0.0000 C   0  0  0  0  0  0  0  0  0  0  0  0
   -0.7500    1.2990    0.0000 C   0  0  0  0  0  0  0  0  0  0  0  0
   -1.5000    0.0000    0.0000 N   0  0  0  0  0  0  0  0  0  0  0  0
   -0.7500   -1.2990    0.0000 C   0  0  0  0  0  0  0  0  0  0  0  0
   -4.1679   -3.2376    0.0000 C   0  0  0  0  0  0  0  0  0  0  0  0
   -5.6303   -2.9038    0.0000 C   0  0  0  0  0  0  0  0  0  0  0  0
  1  2  1  0
  2  3  1  0
  3  4  1  0
  4  5  2  0
  4  6  1  0
  6  7  1  0
  7  8  1  0
  8  9  1  0
  9 10  2  3
 10 11  1  0
 11 12  2  0
 12 13  1  0
 13 14  2  0
 14 15  1  0
 14 16  1  0
 16 17  2  0
 17 18  1  0
 18 19  1  0
 19 20  1  0
 20 21  2  0
 21 22  1  0
 22 23  2  0
 23 24  1  0
 24 25  2  0
  9 26  1  0
 26 27  1  0
 27  6  1  0
 25 10  1  0
 17 11  1  0
 25 20  1  0
M  END
>  <assay_description>  (234) 
Inhibition of human BSEP overexpressed in Sf9 cell membrane vesicles assessed as uptake of [3H]-taurocholate in presence of ATP measured after 15 to 20 mins by membrane vesicle transport assay

>  <molecule_pref_name>  (234) 
LORATADINE

>  <canonical_smiles>  (234) 
CCOC(=O)N1CCC(=C2c3ccc(Cl)cc3CCc3cccnc32)CC1

>  <pchembl_value>  (234) 
4.92

>  <standard_type>  (234) 
IC50

>  <standard_relation>  (234) 
=

>  <standard_value>  (234) 
12000.0

>  <standard_units>  (234) 
nM

>  <target_pref_name>  (234) 
Bile salt export pump

>  <target_organism>  (234) 
Homo sapiens

$$$$
CHEMBL1200969
     RDKit          2D

 37 41  0  0  0  0  0  0  0  0999 V2000
   -4.4918   -5.3529    0.0000 C   0  0  0  0  0  0  0  0  0  0  0  0
   -3.0000   -5.1962    0.0000 C   0  0  0  0  0  0  0  0  0  0  0  0
   -3.7500   -3.8971    0.0000 C   0  0  0  0  0  0  0  0  0  0  0  0
   -3.0000   -2.5981    0.0000 C   0  0  0  0  0  0  0  0  0  0  0  0
   -1.5000   -2.5981    0.0000 C   0  0  0  0  0  0  0  0  0  0  0  0
   -0.7500   -3.8971    0.0000 C   0  0  0  0  0  0  0  0  0  0  0  0
    0.7500   -3.8971    0.0000 C   0  0  0  0  0  0  0  0  0  0  0  0
    1.5000   -2.5981    0.0000 C   0  0  0  0  0  0  0  0  0  0  0  0
    0.7500   -1.2990    0.0000 C   0  0  0  0  0  0  0  0  0  0  0  0
    1.5000    0.0000    0.0000 N   0  0  0  0  0  0  0  0  0  0  0  0
    0.7500    1.2990    0.0000 C   0  0  0  0  0  0  0  0  0  0  0  0
    1.5000    2.5981    0.0000 O   0  0  0  0  0  0  0  0  0  0  0  0
   -0.7500    1.2990    0.0000 C   0  0  0  0  0  0  0  0  0  0  0  0
   -1.5000    0.0000    0.0000 C   0  0  0  0  0  0  0  0  0  0  0  0
   -0.7500   -1.2990    0.0000 C   0  0  0  0  0  0  0  0  0  0  0  0
   -2.2500   -1.2990    0.0000 C   0  0  0  0  0  0  0  0  0  0  0  0
   -1.5000   -5.1962    0.0000 C   0  0  0  0  0  0  0  0  0  0  0  0
   -1.0365   -6.6227    0.0000 C   0  0  0  0  0  0  0  0  0  0  0  0
   -2.2500   -7.5044    0.0000 C   0  0  0  0  0  0  0  0  0  0  0  0
   -3.4635   -6.6227    0.0000 C   0  0  0  0  0  0  0  0  0  0  0  0
   -4.8901   -7.0863    0.0000 C   0  0  0  0  0  0  0  0  0  0  0  0
   -6.0048   -6.0826    0.0000 O   0  0  0  0  0  0  0  0  0  0  0  0
   -5.2020   -8.5535    0.0000 N   0  0  0  0  0  0  0  0  0  0  0  0
   -6.6286   -9.0170    0.0000 C   0  0  0  0  0  0  0  0  0  0  0  0
   -7.7433   -8.0133    0.0000 C   0  0  0  0  0  0  0  0  0  0  0  0
   -9.1699   -8.4768    0.0000 C   0  0  0  0  0  0  0  0  0  0  0  0
  -10.2846   -7.4731    0.0000 C   0  0  0  0  0  0  0  0  0  0  0  0
  -11.3993   -6.4694    0.0000 F   0  0  0  0  0  0  0  0  0  0  0  0
   -9.2809   -6.3584    0.0000 F   0  0  0  0  0  0  0  0  0  0  0  0
  -11.2883   -8.5879    0.0000 F   0  0  0  0  0  0  0  0  0  0  0  0
   -9.4817   -9.9441    0.0000 C   0  0  0  0  0  0  0  0  0  0  0  0
   -8.3670  -10.9478    0.0000 C   0  0  0  0  0  0  0  0  0  0  0  0
   -6.9404  -10.4842    0.0000 C   0  0  0  0  0  0  0  0  0  0  0  0
   -5.8257  -11.4879    0.0000 C   0  0  0  0  0  0  0  0  0  0  0  0
   -4.7110  -12.4916    0.0000 F   0  0  0  0  0  0  0  0  0  0  0  0
   -6.8294  -12.6026    0.0000 F   0  0  0  0  0  0  0  0  0  0  0  0
   -4.8220  -10.3732    0.0000 F   0  0  0  0  0  0  0  0  0  0  0  0
  2  1  1  6
  2  3  1  0
  3  4  1  0
  5  4  1  6
  5  6  1  0
  6  7  1  1
  7  8  1  0
  9  8  1  6
  9 10  1  0
 10 11  1  0
 11 12  2  0
 11 13  1  0
 13 14  2  0
 14 15  1  0
 15 16  1  6
  6 17  1  0
 17 18  1  6
 18 19  1  0
 19 20  1  0
 20 21  1  6
 21 22  2  0
 21 23  1  0
 23 24  1  0
 24 25  2  0
 25 26  1  0
 26 27  1  0
 27 28  1  0
 27 29  1  0
 27 30  1  0
 26 31  2  0
 31 32  1  0
 32 33  2  0
 33 34  1  0
 34 35  1  0
 34 36  1  0
 34 37  1  0
 17  2  1  0
 33 24  1  0
 20  2  1  0
 15  5  1  0
 15  9  1  0
M  END
>  <assay_description>  (235) 
Inhibition of human BSEP overexpressed in Sf9 cell membrane vesicles assessed as uptake of [3H]-taurocholate in presence of ATP measured after 15 to 20 mins by membrane vesicle transport assay

>  <molecule_pref_name>  (235) 
DUTASTERIDE

>  <canonical_smiles>  (235) 
C[C@]12CC[C@H]3[C@@H](CC[C@H]4NC(=O)C=C[C@]34C)[C@@H]1CC[C@@H]2C(=O)Nc1cc(C(F)(F)F)ccc1C(F)(F)F

>  <pchembl_value>  (235) 
4.53

>  <standard_type>  (235) 
IC50

>  <standard_relation>  (235) 
=

>  <standard_value>  (235) 
29800.0

>  <standard_units>  (235) 
nM

>  <target_pref_name>  (235) 
Bile salt export pump

>  <target_organism>  (235) 
Homo sapiens

$$$$
CHEMBL1051
     RDKit          2D

 31 32  0  0  0  0  0  0  0  0999 V2000
   -5.3734    1.7180    0.0000 C   0  0  0  0  0  0  0  0  0  0  0  0
   -5.8369    0.2914    0.0000 C   0  0  0  0  0  0  0  0  0  0  0  0
   -7.3041   -0.0205    0.0000 C   0  0  0  0  0  0  0  0  0  0  0  0
   -4.8332   -0.8233    0.0000 O   0  0  0  0  0  0  0  0  0  0  0  0
   -5.2967   -2.2499    0.0000 C   0  0  0  0  0  0  0  0  0  0  0  0
   -6.7640   -2.5618    0.0000 O   0  0  0  0  0  0  0  0  0  0  0  0
   -4.2930   -3.3646    0.0000 C   0  0  0  0  0  0  0  0  0  0  0  0
   -4.7566   -4.7912    0.0000 C   0  0  0  0  0  0  0  0  0  0  0  0
   -3.7529   -5.9059    0.0000 C   0  0  0  0  0  0  0  0  0  0  0  0
   -4.2164   -7.3325    0.0000 C   0  0  0  0  0  0  0  0  0  0  0  0
   -3.2127   -8.4472    0.0000 C   0  0  0  0  0  0  0  0  0  0  0  0
   -1.7455   -8.1353    0.0000 C   0  0  0  0  0  0  0  0  0  0  0  0
   -0.7418   -9.2501    0.0000 C   0  0  0  0  0  0  0  0  0  0  0  0
   -1.0537  -10.7173    0.0000 C   0  0  0  0  0  0  0  0  0  0  0  0
   -2.4240  -11.3274    0.0000 O   0  0  0  0  0  0  0  0  0  0  0  0
    0.2454  -11.4673    0.0000 C   0  0  0  0  0  0  0  0  0  0  0  0
    1.3601  -10.4636    0.0000 C   0  0  0  0  0  0  0  0  0  0  0  0
    2.8273  -10.7755    0.0000 O   0  0  0  0  0  0  0  0  0  0  0  0
    0.7500   -9.0933    0.0000 C   0  0  0  0  0  0  0  0  0  0  0  0
    1.5000   -7.7942    0.0000 C   0  0  0  0  0  0  0  0  0  0  0  0
    0.7500   -6.4952    0.0000 C   0  0  0  0  0  0  0  0  0  0  0  0
    1.5000   -5.1962    0.0000 C   0  0  0  0  0  0  0  0  0  0  0  0
    3.0000   -5.1962    0.0000 O   0  0  0  0  0  0  0  0  0  0  0  0
    0.7500   -3.8971    0.0000 C   0  0  0  0  0  0  0  0  0  0  0  0
    1.5000   -2.5981    0.0000 C   0  0  0  0  0  0  0  0  0  0  0  0
    0.7500   -1.2990    0.0000 C   0  0  0  0  0  0  0  0  0  0  0  0
    1.5000    0.0000    0.0000 C   0  0  0  0  0  0  0  0  0  0  0  0
    0.7500    1.2990    0.0000 C   0  0  0  0  0  0  0  0  0  0  0  0
   -0.7500    1.2990    0.0000 C   0  0  0  0  0  0  0  0  0  0  0  0
   -1.5000    0.0000    0.0000 C   0  0  0  0  0  0  0  0  0  0  0  0
   -0.7500   -1.2990    0.0000 C   0  0  0  0  0  0  0  0  0  0  0  0
  1  2  1  0
  2  3  1  0
  2  4  1  0
  4  5  1  0
  5  6  2  0
  5  7  1  0
  7  8  1  0
  8  9  1  0
  9 10  1  0
 10 11  2  0
 11 12  1  0
 13 12  1  6
 13 14  1  0
 14 15  1  6
 14 16  1  0
 16 17  1  0
 17 18  1  6
 17 19  1  0
 19 20  1  1
 20 21  1  0
 21 22  1  0
 22 23  1  6
 22 24  1  0
 24 25  1  0
 25 26  1  0
 26 27  2  0
 27 28  1  0
 28 29  2  0
 29 30  1  0
 30 31  2  0
 19 13  1  0
 31 26  1  0
M  END
>  <assay_description>  (236) 
Inhibition of human BSEP overexpressed in Sf9 cell membrane vesicles assessed as uptake of [3H]-taurocholate in presence of ATP measured after 15 to 20 mins by membrane vesicle transport assay

>  <molecule_pref_name>  (236) 
LATANOPROST

>  <canonical_smiles>  (236) 
CC(C)OC(=O)CCC/C=C\C[C@H]1[C@@H](O)C[C@@H](O)[C@@H]1CC[C@@H](O)CCc1ccccc1

>  <pchembl_value>  (236) 
4.89

>  <standard_type>  (236) 
IC50

>  <standard_relation>  (236) 
=

>  <standard_value>  (236) 
12900.0

>  <standard_units>  (236) 
nM

>  <target_pref_name>  (236) 
Bile salt export pump

>  <target_organism>  (236) 
Homo sapiens

$$$$
CHEMBL1200686
     RDKit          2D

 56 59  0  0  0  0  0  0  0  0999 V2000
   -5.1755  -11.5600    0.0000 C   0  0  0  0  0  0  0  0  0  0  0  0
   -3.6797  -11.6721    0.0000 C   0  0  0  0  0  0  0  0  0  0  0  0
   -2.8347  -10.4327    0.0000 C   0  0  0  0  0  0  0  0  0  0  0  0
   -1.4832  -11.0835    0.0000 C   0  0  0  0  0  0  0  0  0  0  0  0
   -0.0000  -11.3071    0.0000 C   0  0  0  0  0  0  0  0  0  0  0  0
   -0.0000  -12.8071    0.0000 C   0  0  0  0  0  0  0  0  0  0  0  0
    1.4832  -11.0835    0.0000 C   0  0  0  0  0  0  0  0  0  0  0  0
    2.8347  -10.4327    0.0000 C   0  0  0  0  0  0  0  0  0  0  0  0
    3.6797  -11.6721    0.0000 C   0  0  0  0  0  0  0  0  0  0  0  0
    3.9343   -9.4124    0.0000 C   0  0  0  0  0  0  0  0  0  0  0  0
    4.6843   -8.1134    0.0000 C   0  0  0  0  0  0  0  0  0  0  0  0
    6.0806   -8.6614    0.0000 O   0  0  0  0  0  0  0  0  0  0  0  0
    6.3042  -10.1447    0.0000 C   0  0  0  0  0  0  0  0  0  0  0  0
    5.0181   -6.6510    0.0000 C   0  0  0  0  0  0  0  0  0  0  0  0
    4.9060   -5.1552    0.0000 O   0  0  0  0  0  0  0  0  0  0  0  0
    4.3580   -3.7589    0.0000 C   0  0  0  0  0  0  0  0  0  0  0  0
    5.6570   -3.0089    0.0000 O   0  0  0  0  0  0  0  0  0  0  0  0
    3.4227   -2.5862    0.0000 C   0  0  0  0  0  0  0  0  0  0  0  0
    4.4430   -1.4866    0.0000 O   0  0  0  0  0  0  0  0  0  0  0  0
    2.1834   -1.7412    0.0000 C   0  0  0  0  0  0  0  0  0  0  0  0
    2.8342   -0.3897    0.0000 O   0  0  0  0  0  0  0  0  0  0  0  0
    0.7500   -1.2990    0.0000 N   0  0  0  0  0  0  0  0  0  0  0  0
    1.5000    0.0000    0.0000 C   0  0  0  0  0  0  0  0  0  0  0  0
    0.7500    1.2990    0.0000 C   0  0  0  0  0  0  0  0  0  0  0  0
   -0.7500    1.2990    0.0000 C   0  0  0  0  0  0  0  0  0  0  0  0
   -1.5000    0.0000    0.0000 C   0  0  0  0  0  0  0  0  0  0  0  0
   -0.7500   -1.2990    0.0000 C   0  0  0  0  0  0  0  0  0  0  0  0
   -2.1834   -1.7412    0.0000 C   0  0  0  0  0  0  0  0  0  0  0  0
   -2.8342   -0.3897    0.0000 O   0  0  0  0  0  0  0  0  0  0  0  0
   -3.4227   -2.5862    0.0000 O   0  0  0  0  0  0  0  0  0  0  0  0
   -4.3580   -3.7589    0.0000 C   0  0  0  0  0  0  0  0  0  0  0  0
   -5.6570   -3.0089    0.0000 C   0  0  0  0  0  0  0  0  0  0  0  0
   -6.9560   -3.7589    0.0000 C   0  0  0  0  0  0  0  0  0  0  0  0
   -5.6570   -1.5089    0.0000 C   0  0  0  0  0  0  0  0  0  0  0  0
   -6.9560   -0.7589    0.0000 C   0  0  0  0  0  0  0  0  0  0  0  0
   -6.9560    0.7411    0.0000 C   0  0  0  0  0  0  0  0  0  0  0  0
   -8.2551    1.4911    0.0000 C   0  0  0  0  0  0  0  0  0  0  0  0
   -9.5541    0.7411    0.0000 C   0  0  0  0  0  0  0  0  0  0  0  0
  -10.8531    1.4911    0.0000 Cl  0  0  0  0  0  0  0  0  0  0  0  0
   -9.5541   -0.7589    0.0000 C   0  0  0  0  0  0  0  0  0  0  0  0
  -10.8531   -1.5089    0.0000 O   0  0  0  0  0  0  0  0  0  0  0  0
  -10.8531   -3.0089    0.0000 C   0  0  0  0  0  0  0  0  0  0  0  0
   -8.2551   -1.5089    0.0000 C   0  0  0  0  0  0  0  0  0  0  0  0
   -4.9060   -5.1552    0.0000 C   0  0  0  0  0  0  0  0  0  0  0  0
   -6.3684   -4.8214    0.0000 C   0  0  0  0  0  0  0  0  0  0  0  0
   -5.0181   -6.6510    0.0000 C   0  0  0  0  0  0  0  0  0  0  0  0
   -6.5139   -6.7631    0.0000 O   0  0  0  0  0  0  0  0  0  0  0  0
   -4.6843   -8.1134    0.0000 C   0  0  0  0  0  0  0  0  0  0  0  0
   -3.9343   -9.4124    0.0000 C   0  0  0  0  0  0  0  0  0  0  0  0
   -5.1070  -10.3477    0.0000 O   0  0  0  0  0  0  0  0  0  0  0  0
    5.9023   -3.7843    0.0000 C   0  0  0  0  0  0  0  0  0  0  0  0
    6.3445   -2.3509    0.0000 C   0  0  0  0  0  0  0  0  0  0  0  0
    6.9226   -4.8839    0.0000 C   0  0  0  0  0  0  0  0  0  0  0  0
    6.4805   -6.3172    0.0000 C   0  0  0  0  0  0  0  0  0  0  0  0
    7.5007   -7.4168    0.0000 O   0  0  0  0  0  0  0  0  0  0  0  0
    8.9631   -7.0830    0.0000 C   0  0  0  0  0  0  0  0  0  0  0  0
  1  2  1  0
  3  2  1  1
  3  4  1  0
  4  5  2  0
  5  6  1  0
  5  7  1  0
  7  8  1  0
  8  9  1  1
  8 10  1  0
 10 11  1  0
 11 12  1  1
 12 13  1  0
 11 14  1  0
 14 15  1  1
 15 16  1  0
 16 17  1  6
 16 18  1  0
 18 19  2  0
 18 20  1  0
 20 21  2  0
 20 22  1  0
 22 23  1  0
 23 24  1  0
 24 25  1  0
 25 26  1  0
 27 26  1  6
 27 28  1  0
 28 29  2  0
 28 30  1  0
 30 31  1  0
 31 32  1  1
 32 33  1  0
 32 34  2  0
 35 34  1  1
 35 36  1  0
 36 37  1  0
 37 38  1  0
 38 39  1  1
 38 40  1  0
 40 41  1  1
 41 42  1  0
 40 43  1  0
 31 44  1  0
 44 45  1  1
 44 46  1  0
 46 47  1  6
 46 48  1  0
 48 49  1  0
 49 50  2  0
 16 51  1  0
 51 52  1  6
 51 53  1  0
 53 54  1  0
 54 55  1  6
 55 56  1  0
 49  3  1  0
 54 14  1  0
 27 22  1  0
 43 35  1  0
M  END
>  <assay_description>  (237) 
Inhibition of human BSEP overexpressed in Sf9 cell membrane vesicles assessed as uptake of [3H]-taurocholate in presence of ATP measured after 15 to 20 mins by membrane vesicle transport assay

>  <molecule_pref_name>  (237) 
PIMECROLIMUS

>  <canonical_smiles>  (237) 
CC[C@@H]1/C=C(\C)C[C@H](C)C[C@H](OC)[C@H]2O[C@@](O)(C(=O)C(=O)N3CCCC[C@H]3C(=O)O[C@H](/C(C)=C/[C@@H]3CC[C@H](Cl)[C@H](OC)C3)[C@H](C)[C@@H](O)CC1=O)[C@H](C)C[C@@H]2OC

>  <pchembl_value>  (237) 
5.00

>  <standard_type>  (237) 
IC50

>  <standard_relation>  (237) 
=

>  <standard_value>  (237) 
10000.0

>  <standard_units>  (237) 
nM

>  <target_pref_name>  (237) 
Bile salt export pump

>  <target_organism>  (237) 
Homo sapiens

$$$$
CHEMBL1648
     RDKit          2D

 27 29  0  0  0  0  0  0  0  0999 V2000
   -1.9679   -3.6517    0.0000 C   0  0  0  0  0  0  0  0  0  0  0  0
   -3.0826   -2.6480    0.0000 O   0  0  0  0  0  0  0  0  0  0  0  0
   -2.7707   -1.1807    0.0000 C   0  0  0  0  0  0  0  0  0  0  0  0
   -1.8872   -1.1190    0.0000 O   0  0  0  0  0  0  0  0  0  0  0  0
   -3.8855   -0.1771    0.0000 C   0  0  0  0  0  0  0  0  0  0  0  0
   -5.3120   -0.6406    0.0000 C   0  0  0  0  0  0  0  0  0  0  0  0
   -5.6239   -2.1078    0.0000 C   0  0  0  0  0  0  0  0  0  0  0  0
   -6.4268    0.3631    0.0000 N   0  0  0  0  0  0  0  0  0  0  0  0
   -6.1149    1.8303    0.0000 C   0  0  0  0  0  0  0  0  0  0  0  0
   -7.2296    2.8340    0.0000 C   0  0  0  0  0  0  0  0  0  0  0  0
   -4.6883    2.2939    0.0000 C   0  0  0  0  0  0  0  0  0  0  0  0
   -4.3764    3.7611    0.0000 C   0  0  0  0  0  0  0  0  0  0  0  0
   -2.9499    4.2246    0.0000 O   0  0  0  0  0  0  0  0  0  0  0  0
   -5.4912    4.7648    0.0000 O   0  0  0  0  0  0  0  0  0  0  0  0
   -5.1793    6.2320    0.0000 C   0  0  0  0  0  0  0  0  0  0  0  0
   -6.2940    7.2357    0.0000 C   0  0  0  0  0  0  0  0  0  0  0  0
   -3.7527    6.6955    0.0000 C   0  0  0  0  0  0  0  0  0  0  0  0
   -3.5736    1.2902    0.0000 C   0  0  0  0  0  0  0  0  0  0  0  0
   -2.1470    1.7537    0.0000 C   0  0  0  0  0  0  0  0  0  0  0  0
   -1.8351    3.2209    0.0000 C   0  0  0  0  0  0  0  0  0  0  0  0
   -0.4086    3.6844    0.0000 C   0  0  0  0  0  0  0  0  0  0  0  0
    0.7062    2.6807    0.0000 C   0  0  0  0  0  0  0  0  0  0  0  0
    0.3943    1.2135    0.0000 C   0  0  0  0  0  0  0  0  0  0  0  0
    1.2760   -0.0000    0.0000 N   0  0  0  0  0  0  0  0  0  0  0  0
    0.3943   -1.2135    0.0000 O   0  0  0  0  0  0  0  0  0  0  0  0
   -1.0323   -0.7500    0.0000 N   0  0  0  0  0  0  0  0  0  0  0  0
   -1.0323    0.7500    0.0000 C   0  0  0  0  0  0  0  0  0  0  0  0
  1  2  1  0
  2  3  1  0
  3  4  2  0
  3  5  1  0
  5  6  2  0
  6  7  1  0
  6  8  1  0
  8  9  1  0
  9 10  1  0
  9 11  2  0
 11 12  1  0
 12 13  2  0
 12 14  1  0
 14 15  1  0
 15 16  1  0
 15 17  1  0
 11 18  1  0
 18 19  1  0
 19 20  2  0
 20 21  1  0
 21 22  2  0
 22 23  1  0
 23 24  2  0
 24 25  1  0
 25 26  1  0
 26 27  2  0
 18  5  1  0
 27 19  1  0
 27 23  1  0
M  END
>  <assay_description>  (238) 
Inhibition of human BSEP overexpressed in Sf9 cell membrane vesicles assessed as uptake of [3H]-taurocholate in presence of ATP measured after 15 to 20 mins by membrane vesicle transport assay

>  <molecule_pref_name>  (238) 
ISRADIPINE

>  <canonical_smiles>  (238) 
COC(=O)C1=C(C)NC(C)=C(C(=O)OC(C)C)C1c1cccc2nonc12

>  <pchembl_value>  (238) 
4.55

>  <standard_type>  (238) 
IC50

>  <standard_relation>  (238) 
=

>  <standard_value>  (238) 
28000.0

>  <standard_units>  (238) 
nM

>  <target_pref_name>  (238) 
Bile salt export pump

>  <target_organism>  (238) 
Homo sapiens

$$$$
CHEMBL655
     RDKit          2D

 23 26  0  0  0  0  0  0  0  0999 V2000
    3.9485   -1.0497    0.0000 C   0  0  0  0  0  0  0  0  0  0  0  0
    3.1792   -2.3373    0.0000 C   0  0  0  0  0  0  0  0  0  0  0  0
    3.7687   -3.7166    0.0000 N   0  0  0  0  0  0  0  0  0  0  0  0
    2.6391   -4.7035    0.0000 C   0  0  0  0  0  0  0  0  0  0  0  0
    1.3515   -3.9342    0.0000 C   0  0  0  0  0  0  0  0  0  0  0  0
    1.6852   -2.4718    0.0000 N   0  0  0  0  0  0  0  0  0  0  0  0
    0.7500   -1.2990    0.0000 C   0  0  0  0  0  0  0  0  0  0  0  0
    1.5000    0.0000    0.0000 C   0  0  0  0  0  0  0  0  0  0  0  0
    0.7500    1.2990    0.0000 C   0  0  0  0  0  0  0  0  0  0  0  0
   -0.7500    1.2990    0.0000 C   0  0  0  0  0  0  0  0  0  0  0  0
   -1.5000    2.5981    0.0000 Cl  0  0  0  0  0  0  0  0  0  0  0  0
   -1.5000    0.0000    0.0000 C   0  0  0  0  0  0  0  0  0  0  0  0
   -0.7500   -1.2990    0.0000 C   0  0  0  0  0  0  0  0  0  0  0  0
   -1.6852   -2.4718    0.0000 C   0  0  0  0  0  0  0  0  0  0  0  0
   -3.1476   -2.1380    0.0000 C   0  0  0  0  0  0  0  0  0  0  0  0
   -3.5898   -0.7046    0.0000 C   0  0  0  0  0  0  0  0  0  0  0  0
   -5.0522   -0.3709    0.0000 C   0  0  0  0  0  0  0  0  0  0  0  0
   -6.0724   -1.4704    0.0000 C   0  0  0  0  0  0  0  0  0  0  0  0
   -5.6303   -2.9038    0.0000 C   0  0  0  0  0  0  0  0  0  0  0  0
   -4.1679   -3.2376    0.0000 C   0  0  0  0  0  0  0  0  0  0  0  0
   -3.7258   -4.6709    0.0000 F   0  0  0  0  0  0  0  0  0  0  0  0
   -1.3515   -3.9342    0.0000 N   0  0  0  0  0  0  0  0  0  0  0  0
   -0.0000   -4.5850    0.0000 C   0  0  0  0  0  0  0  0  0  0  0  0
  1  2  1  0
  2  3  2  0
  3  4  1  0
  4  5  2  0
  5  6  1  0
  6  7  1  0
  7  8  2  0
  8  9  1  0
  9 10  2  0
 10 11  1  0
 10 12  1  0
 12 13  2  0
 13 14  1  0
 14 15  1  0
 15 16  2  0
 16 17  1  0
 17 18  2  0
 18 19  1  0
 19 20  2  0
 20 21  1  0
 14 22  2  0
 22 23  1  0
  6  2  1  0
 13  7  1  0
 20 15  1  0
 23  5  1  0
M  END
>  <assay_description>  (239) 
Inhibition of human BSEP overexpressed in Sf9 cell membrane vesicles assessed as uptake of [3H]-taurocholate in presence of ATP measured after 15 to 20 mins by membrane vesicle transport assay

>  <molecule_pref_name>  (239) 
MIDAZOLAM

>  <canonical_smiles>  (239) 
Cc1ncc2n1-c1ccc(Cl)cc1C(c1ccccc1F)=NC2

>  <pchembl_value>  (239) 
4.38

>  <standard_type>  (239) 
IC50

>  <standard_relation>  (239) 
=

>  <standard_value>  (239) 
41740.0

>  <standard_units>  (239) 
nM

>  <target_pref_name>  (239) 
Bile salt export pump

>  <target_organism>  (239) 
Homo sapiens

$$$$
CHEMBL14376
     RDKit          2D

 31 34  0  0  0  0  0  0  0  0999 V2000
  -11.5115   -7.4375    0.0000 C   0  0  0  0  0  0  0  0  0  0  0  0
  -11.1996   -5.9703    0.0000 O   0  0  0  0  0  0  0  0  0  0  0  0
  -12.3143   -4.9666    0.0000 C   0  0  0  0  0  0  0  0  0  0  0  0
  -13.7409   -5.4301    0.0000 C   0  0  0  0  0  0  0  0  0  0  0  0
  -14.8556   -4.4264    0.0000 C   0  0  0  0  0  0  0  0  0  0  0  0
  -16.2822   -4.8900    0.0000 C   0  0  0  0  0  0  0  0  0  0  0  0
  -17.3969   -3.8863    0.0000 C   0  0  0  0  0  0  0  0  0  0  0  0
  -16.5941   -6.3572    0.0000 O   0  0  0  0  0  0  0  0  0  0  0  0
  -14.5438   -2.9592    0.0000 C   0  0  0  0  0  0  0  0  0  0  0  0
  -13.1172   -2.4957    0.0000 C   0  0  0  0  0  0  0  0  0  0  0  0
  -12.0025   -3.4994    0.0000 C   0  0  0  0  0  0  0  0  0  0  0  0
  -10.5759   -3.0359    0.0000 O   0  0  0  0  0  0  0  0  0  0  0  0
   -9.4612   -4.0396    0.0000 C   0  0  0  0  0  0  0  0  0  0  0  0
   -8.0346   -3.5760    0.0000 C   0  0  0  0  0  0  0  0  0  0  0  0
   -6.9199   -4.5797    0.0000 C   0  0  0  0  0  0  0  0  0  0  0  0
   -5.4933   -4.1162    0.0000 N   0  0  0  0  0  0  0  0  0  0  0  0
   -4.3786   -5.1199    0.0000 C   0  0  0  0  0  0  0  0  0  0  0  0
   -2.9520   -4.6564    0.0000 C   0  0  0  0  0  0  0  0  0  0  0  0
   -2.6401   -3.1891    0.0000 C   0  0  0  0  0  0  0  0  0  0  0  0
   -1.2135   -2.7256    0.0000 C   0  0  0  0  0  0  0  0  0  0  0  0
   -0.0000   -3.6073    0.0000 N   0  0  0  0  0  0  0  0  0  0  0  0
    1.2135   -2.7256    0.0000 O   0  0  0  0  0  0  0  0  0  0  0  0
    0.7500   -1.2990    0.0000 C   0  0  0  0  0  0  0  0  0  0  0  0
    1.5000    0.0000    0.0000 C   0  0  0  0  0  0  0  0  0  0  0  0
    0.7500    1.2990    0.0000 C   0  0  0  0  0  0  0  0  0  0  0  0
    1.5000    2.5981    0.0000 F   0  0  0  0  0  0  0  0  0  0  0  0
   -0.7500    1.2990    0.0000 C   0  0  0  0  0  0  0  0  0  0  0  0
   -1.5000    0.0000    0.0000 C   0  0  0  0  0  0  0  0  0  0  0  0
   -0.7500   -1.2990    0.0000 C   0  0  0  0  0  0  0  0  0  0  0  0
   -3.7548   -2.1855    0.0000 C   0  0  0  0  0  0  0  0  0  0  0  0
   -5.1814   -2.6490    0.0000 C   0  0  0  0  0  0  0  0  0  0  0  0
  1  2  1  0
  2  3  1  0
  3  4  2  0
  4  5  1  0
  5  6  1  0
  6  7  1  0
  6  8  2  0
  5  9  2  0
  9 10  1  0
 10 11  2  0
 11 12  1  0
 12 13  1  0
 13 14  1  0
 14 15  1  0
 15 16  1  0
 16 17  1  0
 17 18  1  0
 18 19  1  0
 19 20  1  0
 20 21  2  0
 21 22  1  0
 22 23  1  0
 23 24  2  0
 24 25  1  0
 25 26  1  0
 25 27  2  0
 27 28  1  0
 28 29  2  0
 19 30  1  0
 30 31  1  0
 11  3  1  0
 31 16  1  0
 29 20  1  0
 29 23  1  0
M  END
>  <assay_description>  (240) 
Inhibition of human BSEP overexpressed in Sf9 cell membrane vesicles assessed as uptake of [3H]-taurocholate in presence of ATP measured after 15 to 20 mins by membrane vesicle transport assay

>  <molecule_pref_name>  (240) 
ILOPERIDONE

>  <canonical_smiles>  (240) 
COc1cc(C(C)=O)ccc1OCCCN1CCC(c2noc3cc(F)ccc23)CC1

>  <pchembl_value>  (240) 
4.63

>  <standard_type>  (240) 
IC50

>  <standard_relation>  (240) 
=

>  <standard_value>  (240) 
23400.0

>  <standard_units>  (240) 
nM

>  <target_pref_name>  (240) 
Bile salt export pump

>  <target_organism>  (240) 
Homo sapiens

$$$$
CHEMBL1201155
     RDKit          2D

 31 33  0  0  0  0  0  0  0  0999 V2000
    6.0424   -7.6751    0.0000 C   0  0  0  0  0  0  0  0  0  0  0  0
    4.8697   -6.7399    0.0000 N   0  0  0  0  0  0  0  0  0  0  0  0
    3.4734   -7.2879    0.0000 C   0  0  0  0  0  0  0  0  0  0  0  0
    2.3006   -6.3527    0.0000 C   0  0  0  0  0  0  0  0  0  0  0  0
    2.5242   -4.8694    0.0000 N   0  0  0  0  0  0  0  0  0  0  0  0
    1.3515   -3.9342    0.0000 C   0  0  0  0  0  0  0  0  0  0  0  0
    1.6852   -2.4718    0.0000 N   0  0  0  0  0  0  0  0  0  0  0  0
    0.7500   -1.2990    0.0000 C   0  0  0  0  0  0  0  0  0  0  0  0
    1.5000    0.0000    0.0000 C   0  0  0  0  0  0  0  0  0  0  0  0
    0.7500    1.2990    0.0000 C   0  0  0  0  0  0  0  0  0  0  0  0
   -0.7500    1.2990    0.0000 C   0  0  0  0  0  0  0  0  0  0  0  0
   -1.5000    0.0000    0.0000 C   0  0  0  0  0  0  0  0  0  0  0  0
   -0.7500   -1.2990    0.0000 C   0  0  0  0  0  0  0  0  0  0  0  0
   -1.6852   -2.4718    0.0000 O   0  0  0  0  0  0  0  0  0  0  0  0
   -1.3515   -3.9342    0.0000 C   0  0  0  0  0  0  0  0  0  0  0  0
   -2.5908   -4.7792    0.0000 C   0  0  0  0  0  0  0  0  0  0  0  0
   -2.4787   -6.2750    0.0000 C   0  0  0  0  0  0  0  0  0  0  0  0
   -1.1273   -6.9258    0.0000 C   0  0  0  0  0  0  0  0  0  0  0  0
   -1.0152   -8.4216    0.0000 Cl  0  0  0  0  0  0  0  0  0  0  0  0
    0.1121   -6.0808    0.0000 C   0  0  0  0  0  0  0  0  0  0  0  0
    0.0000   -4.5850    0.0000 C   0  0  0  0  0  0  0  0  0  0  0  0
    3.9205   -4.3214    0.0000 C   0  0  0  0  0  0  0  0  0  0  0  0
    5.0933   -5.2566    0.0000 C   0  0  0  0  0  0  0  0  0  0  0  0
    8.3415    2.2500    0.0000 O   0  0  0  0  0  0  0  0  0  0  0  0
    8.3415    0.7500    0.0000 C   0  0  0  0  0  0  0  0  0  0  0  0
    7.0424    0.0000    0.0000 O   0  0  0  0  0  0  0  0  0  0  0  0
    9.6405    0.0000    0.0000 C   0  0  0  0  0  0  0  0  0  0  0  0
   10.9396    0.7500    0.0000 C   0  0  0  0  0  0  0  0  0  0  0  0
   12.2386   -0.0000    0.0000 C   0  0  0  0  0  0  0  0  0  0  0  0
   12.2386   -1.5000    0.0000 O   0  0  0  0  0  0  0  0  0  0  0  0
   13.5376    0.7500    0.0000 O   0  0  0  0  0  0  0  0  0  0  0  0
  1  2  1  0
  2  3  1  0
  3  4  1  0
  4  5  1  0
  5  6  1  0
  6  7  2  0
  7  8  1  0
  8  9  2  0
  9 10  1  0
 10 11  2  0
 11 12  1  0
 12 13  2  0
 13 14  1  0
 14 15  1  0
 15 16  2  0
 16 17  1  0
 17 18  2  0
 18 19  1  0
 18 20  1  0
 20 21  2  0
  5 22  1  0
 22 23  1  0
 24 25  2  0
 25 26  1  0
 25 27  1  0
 27 28  1  0
 28 29  1  0
 29 30  2  0
 29 31  1  0
 23  2  1  0
 21  6  1  0
 13  8  1  0
 21 15  1  0
M  END
>  <assay_description>  (241) 
Inhibition of human BSEP overexpressed in Sf9 cell membrane vesicles assessed as uptake of [3H]-taurocholate in presence of ATP measured after 15 to 20 mins by membrane vesicle transport assay

>  <molecule_pref_name>  (241) 
LOXAPINE SUCCINATE

>  <canonical_smiles>  (241) 
CN1CCN(C2=Nc3ccccc3Oc3ccc(Cl)cc32)CC1.O=C(O)CCC(=O)O

>  <pchembl_value>  (241) 
4.11

>  <standard_type>  (241) 
IC50

>  <standard_relation>  (241) 
=

>  <standard_value>  (241) 
77000.0

>  <standard_units>  (241) 
nM

>  <target_pref_name>  (241) 
Bile salt export pump

>  <target_organism>  (241) 
Homo sapiens

$$$$
CHEMBL4091490
     RDKit          2D

 25 28  0  0  0  0  0  0  0  0999 V2000
   -4.9635   -9.2208    0.0000 C   0  0  0  0  0  0  0  0  0  0  0  0
   -4.2135   -7.9218    0.0000 C   0  0  0  0  0  0  0  0  0  0  0  0
   -3.4635   -6.6227    0.0000 C   0  0  0  0  0  0  0  0  0  0  0  0
   -4.8338   -6.0126    0.0000 O   0  0  0  0  0  0  0  0  0  0  0  0
   -6.0474   -6.8943    0.0000 C   0  0  0  0  0  0  0  0  0  0  0  0
   -7.4177   -6.2842    0.0000 C   0  0  0  0  0  0  0  0  0  0  0  0
   -5.8906   -8.3861    0.0000 O   0  0  0  0  0  0  0  0  0  0  0  0
   -2.2500   -7.5044    0.0000 C   0  0  0  0  0  0  0  0  0  0  0  0
   -1.0365   -6.6227    0.0000 C   0  0  0  0  0  0  0  0  0  0  0  0
   -1.5000   -5.1962    0.0000 C   0  0  0  0  0  0  0  0  0  0  0  0
   -0.7500   -3.8971    0.0000 C   0  0  0  0  0  0  0  0  0  0  0  0
    0.7500   -3.8971    0.0000 C   0  0  0  0  0  0  0  0  0  0  0  0
    1.5000   -2.5981    0.0000 C   0  0  0  0  0  0  0  0  0  0  0  0
    0.7500   -1.2990    0.0000 C   0  0  0  0  0  0  0  0  0  0  0  0
    1.5000    0.0000    0.0000 C   0  0  0  0  0  0  0  0  0  0  0  0
    0.7500    1.2990    0.0000 C   0  0  0  0  0  0  0  0  0  0  0  0
    1.5000    2.5981    0.0000 O   0  0  0  0  0  0  0  0  0  0  0  0
   -0.7500    1.2990    0.0000 C   0  0  0  0  0  0  0  0  0  0  0  0
   -1.5000    0.0000    0.0000 C   0  0  0  0  0  0  0  0  0  0  0  0
   -0.7500   -1.2990    0.0000 C   0  0  0  0  0  0  0  0  0  0  0  0
   -1.5000   -2.5981    0.0000 C   0  0  0  0  0  0  0  0  0  0  0  0
   -3.0000   -2.5981    0.0000 C   0  0  0  0  0  0  0  0  0  0  0  0
   -3.7500   -3.8971    0.0000 C   0  0  0  0  0  0  0  0  0  0  0  0
   -3.0000   -5.1962    0.0000 C   0  0  0  0  0  0  0  0  0  0  0  0
   -4.4854   -4.9873    0.0000 C   0  0  0  0  0  0  0  0  0  0  0  0
  1  2  3  0
  3  2  1  6
  3  4  1  0
  4  5  1  0
  5  6  1  0
  5  7  2  0
  3  8  1  0
  8  9  1  0
 10  9  1  6
 10 11  1  0
 11 12  1  1
 12 13  1  0
 13 14  1  0
 14 15  2  0
 15 16  1  0
 16 17  2  0
 16 18  1  0
 18 19  1  0
 20 19  1  1
 20 21  1  0
 21 22  1  6
 22 23  1  0
 23 24  1  0
 24 25  1  6
 24  3  1  0
 24 10  1  0
 21 11  1  0
 20 14  1  0
M  END
>  <assay_description>  (242) 
Inhibition of human BSEP overexpressed in Sf9 cell membrane vesicles assessed as uptake of [3H]-taurocholate in presence of ATP measured after 15 to 20 mins by membrane vesicle transport assay

>  <molecule_pref_name>  (242) 
None

>  <canonical_smiles>  (242) 
C#C[C@@]1(OC(C)=O)CC[C@H]2[C@@H]3CCC4=CC(=O)CC[C@@H]4[C@H]3CC[C@@]21C

>  <pchembl_value>  (242) 
4.44

>  <standard_type>  (242) 
IC50

>  <standard_relation>  (242) 
=

>  <standard_value>  (242) 
36000.0

>  <standard_units>  (242) 
nM

>  <target_pref_name>  (242) 
Bile salt export pump

>  <target_organism>  (242) 
Homo sapiens

$$$$
CHEMBL922
     RDKit          2D

 34 35  0  0  0  0  0  0  0  0999 V2000
   -8.1604  -14.0234    0.0000 C   0  0  0  0  0  0  0  0  0  0  0  0
   -6.7338  -13.5598    0.0000 C   0  0  0  0  0  0  0  0  0  0  0  0
   -5.3072  -13.0963    0.0000 C   0  0  0  0  0  0  0  0  0  0  0  0
   -6.2703  -14.9864    0.0000 C   0  0  0  0  0  0  0  0  0  0  0  0
   -7.1974  -12.1332    0.0000 C   0  0  0  0  0  0  0  0  0  0  0  0
   -8.6646  -11.8214    0.0000 O   0  0  0  0  0  0  0  0  0  0  0  0
   -6.1937  -11.0185    0.0000 O   0  0  0  0  0  0  0  0  0  0  0  0
   -6.6572   -9.5919    0.0000 C   0  0  0  0  0  0  0  0  0  0  0  0
   -5.6535   -8.4772    0.0000 O   0  0  0  0  0  0  0  0  0  0  0  0
   -6.1170   -7.0506    0.0000 P   0  0  0  0  0  0  0  0  0  0  0  0
   -7.5436   -7.5142    0.0000 O   0  0  0  0  0  0  0  0  0  0  0  0
   -4.6904   -6.5871    0.0000 C   0  0  0  0  0  0  0  0  0  0  0  0
   -4.3786   -5.1199    0.0000 O   0  0  0  0  0  0  0  0  0  0  0  0
   -2.9520   -4.6564    0.0000 C   0  0  0  0  0  0  0  0  0  0  0  0
   -2.6401   -3.1891    0.0000 C   0  0  0  0  0  0  0  0  0  0  0  0
   -1.2135   -2.7256    0.0000 N   0  0  0  0  0  0  0  0  0  0  0  0
   -0.0000   -3.6073    0.0000 C   0  0  0  0  0  0  0  0  0  0  0  0
    1.2135   -2.7256    0.0000 N   0  0  0  0  0  0  0  0  0  0  0  0
    0.7500   -1.2990    0.0000 C   0  0  0  0  0  0  0  0  0  0  0  0
    1.5000    0.0000    0.0000 C   0  0  0  0  0  0  0  0  0  0  0  0
    3.0000    0.0000    0.0000 N   0  0  0  0  0  0  0  0  0  0  0  0
    0.7500    1.2990    0.0000 N   0  0  0  0  0  0  0  0  0  0  0  0
   -0.7500    1.2990    0.0000 C   0  0  0  0  0  0  0  0  0  0  0  0
   -1.5000    0.0000    0.0000 N   0  0  0  0  0  0  0  0  0  0  0  0
   -0.7500   -1.2990    0.0000 C   0  0  0  0  0  0  0  0  0  0  0  0
   -6.5805   -5.6241    0.0000 O   0  0  0  0  0  0  0  0  0  0  0  0
   -8.0478   -5.3122    0.0000 C   0  0  0  0  0  0  0  0  0  0  0  0
   -8.5113   -3.8856    0.0000 O   0  0  0  0  0  0  0  0  0  0  0  0
   -9.9785   -3.5737    0.0000 C   0  0  0  0  0  0  0  0  0  0  0  0
  -10.9822   -4.6885    0.0000 O   0  0  0  0  0  0  0  0  0  0  0  0
  -10.4420   -2.1472    0.0000 C   0  0  0  0  0  0  0  0  0  0  0  0
  -11.8686   -2.6107    0.0000 C   0  0  0  0  0  0  0  0  0  0  0  0
   -9.0154   -1.6836    0.0000 C   0  0  0  0  0  0  0  0  0  0  0  0
  -10.9056   -0.7206    0.0000 C   0  0  0  0  0  0  0  0  0  0  0  0
  1  2  1  0
  2  3  1  0
  2  4  1  0
  2  5  1  0
  5  6  2  0
  5  7  1  0
  7  8  1  0
  8  9  1  0
  9 10  1  0
 10 11  2  0
 10 12  1  0
 12 13  1  0
 13 14  1  0
 14 15  1  0
 15 16  1  0
 16 17  1  0
 17 18  2  0
 18 19  1  0
 19 20  2  0
 20 21  1  0
 20 22  1  0
 22 23  2  0
 23 24  1  0
 24 25  2  0
 10 26  1  0
 26 27  1  0
 27 28  1  0
 28 29  1  0
 29 30  2  0
 29 31  1  0
 31 32  1  0
 31 33  1  0
 31 34  1  0
 25 16  1  0
 25 19  1  0
M  END
>  <assay_description>  (243) 
Inhibition of human BSEP overexpressed in Sf9 cell membrane vesicles assessed as uptake of [3H]-taurocholate in presence of ATP measured after 15 to 20 mins by membrane vesicle transport assay

>  <molecule_pref_name>  (243) 
ADEFOVIR DIPIVOXIL

>  <canonical_smiles>  (243) 
CC(C)(C)C(=O)OCOP(=O)(COCCn1cnc2c(N)ncnc21)OCOC(=O)C(C)(C)C

>  <pchembl_value>  (243) 
4.34

>  <standard_type>  (243) 
IC50

>  <standard_relation>  (243) 
=

>  <standard_value>  (243) 
46000.0

>  <standard_units>  (243) 
nM

>  <target_pref_name>  (243) 
Bile salt export pump

>  <target_organism>  (243) 
Homo sapiens

$$$$
CHEMBL1272
     RDKit          2D

 33 35  0  0  0  0  0  0  0  0999 V2000
    5.2500   -1.2990    0.0000 C   0  0  0  0  0  0  0  0  0  0  0  0
    3.7500   -1.2990    0.0000 C   0  0  0  0  0  0  0  0  0  0  0  0
    3.0000    0.0000    0.0000 O   0  0  0  0  0  0  0  0  0  0  0  0
    1.5000    0.0000    0.0000 C   0  0  0  0  0  0  0  0  0  0  0  0
    0.7500   -1.2990    0.0000 C   0  0  0  0  0  0  0  0  0  0  0  0
   -0.7500   -1.2990    0.0000 C   0  0  0  0  0  0  0  0  0  0  0  0
   -1.5000   -2.5981    0.0000 C   0  0  0  0  0  0  0  0  0  0  0  0
   -3.0000   -2.5981    0.0000 C   0  0  0  0  0  0  0  0  0  0  0  0
   -3.7500   -1.2990    0.0000 O   0  0  0  0  0  0  0  0  0  0  0  0
   -3.7500   -3.8971    0.0000 N   0  0  0  0  0  0  0  0  0  0  0  0
   -5.2500   -3.8971    0.0000 C   0  0  0  0  0  0  0  0  0  0  0  0
   -6.0000   -5.1962    0.0000 C   0  0  0  0  0  0  0  0  0  0  0  0
   -5.2500   -6.4952    0.0000 C   0  0  0  0  0  0  0  0  0  0  0  0
   -6.0000   -7.7942    0.0000 C   0  0  0  0  0  0  0  0  0  0  0  0
   -3.7500   -6.4952    0.0000 C   0  0  0  0  0  0  0  0  0  0  0  0
   -6.0000   -2.5981    0.0000 C   0  0  0  0  0  0  0  0  0  0  0  0
   -5.2500   -1.2990    0.0000 C   0  0  0  0  0  0  0  0  0  0  0  0
   -6.0000    0.0000    0.0000 C   0  0  0  0  0  0  0  0  0  0  0  0
   -7.5000    0.0000    0.0000 C   0  0  0  0  0  0  0  0  0  0  0  0
   -8.2500   -1.2990    0.0000 C   0  0  0  0  0  0  0  0  0  0  0  0
   -7.5000   -2.5981    0.0000 C   0  0  0  0  0  0  0  0  0  0  0  0
   -8.2500   -3.8971    0.0000 N   0  0  0  0  0  0  0  0  0  0  0  0
   -9.7500   -3.8971    0.0000 C   0  0  0  0  0  0  0  0  0  0  0  0
  -10.5000   -5.1962    0.0000 C   0  0  0  0  0  0  0  0  0  0  0  0
   -9.7500   -6.4952    0.0000 C   0  0  0  0  0  0  0  0  0  0  0  0
   -8.2500   -6.4952    0.0000 C   0  0  0  0  0  0  0  0  0  0  0  0
   -7.5000   -5.1962    0.0000 C   0  0  0  0  0  0  0  0  0  0  0  0
   -1.5000    0.0000    0.0000 C   0  0  0  0  0  0  0  0  0  0  0  0
   -0.7500    1.2990    0.0000 C   0  0  0  0  0  0  0  0  0  0  0  0
    0.7500    1.2990    0.0000 C   0  0  0  0  0  0  0  0  0  0  0  0
    1.5000    2.5981    0.0000 C   0  0  0  0  0  0  0  0  0  0  0  0
    0.7500    3.8971    0.0000 O   0  0  0  0  0  0  0  0  0  0  0  0
    3.0000    2.5981    0.0000 O   0  0  0  0  0  0  0  0  0  0  0  0
  1  2  1  0
  2  3  1  0
  3  4  1  0
  4  5  2  0
  5  6  1  0
  6  7  1  0
  7  8  1  0
  8  9  2  0
  8 10  1  0
 10 11  1  0
 11 12  1  1
 12 13  1  0
 13 14  1  0
 13 15  1  0
 11 16  1  0
 16 17  2  0
 17 18  1  0
 18 19  2  0
 19 20  1  0
 20 21  2  0
 21 22  1  0
 22 23  1  0
 23 24  1  0
 24 25  1  0
 25 26  1  0
 26 27  1  0
  6 28  2  0
 28 29  1  0
 29 30  2  0
 30 31  1  0
 31 32  2  0
 31 33  1  0
 30  4  1  0
 21 16  1  0
 27 22  1  0
M  END
>  <assay_description>  (244) 
Inhibition of human BSEP overexpressed in Sf9 cell membrane vesicles assessed as uptake of [3H]-taurocholate in presence of ATP measured after 15 to 20 mins by membrane vesicle transport assay

>  <molecule_pref_name>  (244) 
REPAGLINIDE

>  <canonical_smiles>  (244) 
CCOc1cc(CC(=O)N[C@@H](CC(C)C)c2ccccc2N2CCCCC2)ccc1C(=O)O

>  <pchembl_value>  (244) 
4.66

>  <standard_type>  (244) 
IC50

>  <standard_relation>  (244) 
=

>  <standard_value>  (244) 
22000.0

>  <standard_units>  (244) 
nM

>  <target_pref_name>  (244) 
Bile salt export pump

>  <target_organism>  (244) 
Homo sapiens

$$$$
CHEMBL393220
     RDKit          2D

 83 88  0  0  0  0  0  0  0  0999 V2000
    5.4627   -4.5501    0.0000 C   0  0  0  0  0  0  0  0  0  0  0  0
    3.9955   -4.2382    0.0000 C   0  0  0  0  0  0  0  0  0  0  0  0
    3.5320   -2.8116    0.0000 C   0  0  0  0  0  0  0  0  0  0  0  0
    2.9918   -5.3529    0.0000 C   0  0  0  0  0  0  0  0  0  0  0  0
    1.5000   -5.1962    0.0000 C   0  0  0  0  0  0  0  0  0  0  0  0
    0.7500   -3.8971    0.0000 C   0  0  0  0  0  0  0  0  0  0  0  0
   -0.7500   -3.8971    0.0000 O   0  0  0  0  0  0  0  0  0  0  0  0
    1.5000   -2.5981    0.0000 N   0  0  0  0  0  0  0  0  0  0  0  0
    0.7500   -1.2990    0.0000 C   0  0  0  0  0  0  0  0  0  0  0  0
    1.5000    0.0000    0.0000 C   0  0  0  0  0  0  0  0  0  0  0  0
    0.7500    1.2990    0.0000 C   0  0  0  0  0  0  0  0  0  0  0  0
   -0.7500    1.2990    0.0000 C   0  0  0  0  0  0  0  0  0  0  0  0
   -1.5000    0.0000    0.0000 C   0  0  0  0  0  0  0  0  0  0  0  0
   -0.7500   -1.2990    0.0000 C   0  0  0  0  0  0  0  0  0  0  0  0
    0.8899   -6.5665    0.0000 C   0  0  0  0  0  0  0  0  0  0  0  0
   -0.5773   -6.8783    0.0000 C   0  0  0  0  0  0  0  0  0  0  0  0
   -1.5810   -5.7636    0.0000 C   0  0  0  0  0  0  0  0  0  0  0  0
   -3.0482   -6.0755    0.0000 C   0  0  0  0  0  0  0  0  0  0  0  0
   -3.5118   -7.5021    0.0000 C   0  0  0  0  0  0  0  0  0  0  0  0
   -2.5081   -8.6168    0.0000 C   0  0  0  0  0  0  0  0  0  0  0  0
   -1.0409   -8.3049    0.0000 C   0  0  0  0  0  0  0  0  0  0  0  0
    2.0046   -7.5702    0.0000 C   0  0  0  0  0  0  0  0  0  0  0  0
    1.8478   -9.0619    0.0000 C   0  0  0  0  0  0  0  0  0  0  0  0
    0.4775   -9.6721    0.0000 C   0  0  0  0  0  0  0  0  0  0  0  0
    0.3207  -11.1638    0.0000 C   0  0  0  0  0  0  0  0  0  0  0  0
    1.5342  -12.0455    0.0000 C   0  0  0  0  0  0  0  0  0  0  0  0
    1.3774  -13.5373    0.0000 F   0  0  0  0  0  0  0  0  0  0  0  0
    2.9046  -11.4354    0.0000 C   0  0  0  0  0  0  0  0  0  0  0  0
    3.0613   -9.9436    0.0000 C   0  0  0  0  0  0  0  0  0  0  0  0
    3.3037   -6.8202    0.0000 N   0  0  0  0  0  0  0  0  0  0  0  0
    4.6740   -7.4303    0.0000 C   0  0  0  0  0  0  0  0  0  0  0  0
    5.8875   -6.5486    0.0000 C   0  0  0  0  0  0  0  0  0  0  0  0
    7.2578   -7.1587    0.0000 C   0  0  0  0  0  0  0  0  0  0  0  0
    7.4146   -8.6505    0.0000 O   0  0  0  0  0  0  0  0  0  0  0  0
    8.4713   -6.2770    0.0000 C   0  0  0  0  0  0  0  0  0  0  0  0
    9.8417   -6.8871    0.0000 C   0  0  0  0  0  0  0  0  0  0  0  0
    9.9984   -8.3789    0.0000 O   0  0  0  0  0  0  0  0  0  0  0  0
   11.0552   -6.0054    0.0000 C   0  0  0  0  0  0  0  0  0  0  0  0
   12.4255   -6.6156    0.0000 C   0  0  0  0  0  0  0  0  0  0  0  0
   12.5823   -8.1073    0.0000 O   0  0  0  0  0  0  0  0  0  0  0  0
   13.6390   -5.7339    0.0000 O   0  0  0  0  0  1  0  0  0  0  0  0
    5.4627   11.2862    0.0000 C   0  0  0  0  0  0  0  0  0  0  0  0
    3.9955   11.5981    0.0000 C   0  0  0  0  0  0  0  0  0  0  0  0
    3.5320   13.0247    0.0000 C   0  0  0  0  0  0  0  0  0  0  0  0
    2.9918   10.4834    0.0000 C   0  0  0  0  0  0  0  0  0  0  0  0
    1.5000   10.6402    0.0000 C   0  0  0  0  0  0  0  0  0  0  0  0
    0.7500   11.9392    0.0000 C   0  0  0  0  0  0  0  0  0  0  0  0
   -0.7500   11.9392    0.0000 O   0  0  0  0  0  0  0  0  0  0  0  0
    1.5000   13.2383    0.0000 N   0  0  0  0  0  0  0  0  0  0  0  0
    0.7500   14.5373    0.0000 C   0  0  0  0  0  0  0  0  0  0  0  0
    1.5000   15.8363    0.0000 C   0  0  0  0  0  0  0  0  0  0  0  0
    0.7500   17.1354    0.0000 C   0  0  0  0  0  0  0  0  0  0  0  0
   -0.7500   17.1354    0.0000 C   0  0  0  0  0  0  0  0  0  0  0  0
   -1.5000   15.8363    0.0000 C   0  0  0  0  0  0  0  0  0  0  0  0
   -0.7500   14.5373    0.0000 C   0  0  0  0  0  0  0  0  0  0  0  0
    0.8899    9.2699    0.0000 C   0  0  0  0  0  0  0  0  0  0  0  0
   -0.5773    8.9580    0.0000 C   0  0  0  0  0  0  0  0  0  0  0  0
   -1.5810   10.0727    0.0000 C   0  0  0  0  0  0  0  0  0  0  0  0
   -3.0482    9.7608    0.0000 C   0  0  0  0  0  0  0  0  0  0  0  0
   -3.5118    8.3343    0.0000 C   0  0  0  0  0  0  0  0  0  0  0  0
   -2.5081    7.2195    0.0000 C   0  0  0  0  0  0  0  0  0  0  0  0
   -1.0409    7.5314    0.0000 C   0  0  0  0  0  0  0  0  0  0  0  0
    2.0046    8.2662    0.0000 C   0  0  0  0  0  0  0  0  0  0  0  0
    1.8478    6.7744    0.0000 C   0  0  0  0  0  0  0  0  0  0  0  0
    0.4775    6.1643    0.0000 C   0  0  0  0  0  0  0  0  0  0  0  0
    0.3207    4.6725    0.0000 C   0  0  0  0  0  0  0  0  0  0  0  0
    1.5342    3.7908    0.0000 C   0  0  0  0  0  0  0  0  0  0  0  0
    1.3774    2.2990    0.0000 F   0  0  0  0  0  0  0  0  0  0  0  0
    2.9046    4.4009    0.0000 C   0  0  0  0  0  0  0  0  0  0  0  0
    3.0613    5.8927    0.0000 C   0  0  0  0  0  0  0  0  0  0  0  0
    3.3037    9.0162    0.0000 N   0  0  0  0  0  0  0  0  0  0  0  0
    4.6740    8.4061    0.0000 C   0  0  0  0  0  0  0  0  0  0  0  0
    5.8875    9.2877    0.0000 C   0  0  0  0  0  0  0  0  0  0  0  0
    7.2578    8.6776    0.0000 C   0  0  0  0  0  0  0  0  0  0  0  0
    7.4146    7.1859    0.0000 O   0  0  0  0  0  0  0  0  0  0  0  0
    8.4713    9.5593    0.0000 C   0  0  0  0  0  0  0  0  0  0  0  0
    9.8417    8.9492    0.0000 C   0  0  0  0  0  0  0  0  0  0  0  0
    9.9984    7.4574    0.0000 O   0  0  0  0  0  0  0  0  0  0  0  0
   11.0552    9.8309    0.0000 C   0  0  0  0  0  0  0  0  0  0  0  0
   12.4255    9.2208    0.0000 C   0  0  0  0  0  0  0  0  0  0  0  0
   12.5823    7.7290    0.0000 O   0  0  0  0  0  0  0  0  0  0  0  0
   13.6390   10.1025    0.0000 O   0  0  0  0  0  1  0  0  0  0  0  0
   14.6390    0.0000    0.0000 Ca  0  0  0  0  0 15  0  0  0  0  0  0
  1  2  1  0
  2  3  1  0
  2  4  1  0
  4  5  2  0
  5  6  1  0
  6  7  2  0
  6  8  1  0
  8  9  1  0
  9 10  2  0
 10 11  1  0
 11 12  2  0
 12 13  1  0
 13 14  2  0
  5 15  1  0
 15 16  1  0
 16 17  2  0
 17 18  1  0
 18 19  2  0
 19 20  1  0
 20 21  2  0
 15 22  2  0
 22 23  1  0
 23 24  2  0
 24 25  1  0
 25 26  2  0
 26 27  1  0
 26 28  1  0
 28 29  2  0
 22 30  1  0
 30 31  1  0
 31 32  1  0
 32 33  1  0
 33 34  1  6
 33 35  1  0
 35 36  1  0
 36 37  1  6
 36 38  1  0
 38 39  1  0
 39 40  2  0
 39 41  1  0
 42 43  1  0
 43 44  1  0
 43 45  1  0
 45 46  2  0
 46 47  1  0
 47 48  2  0
 47 49  1  0
 49 50  1  0
 50 51  2  0
 51 52  1  0
 52 53  2  0
 53 54  1  0
 54 55  2  0
 46 56  1  0
 56 57  1  0
 57 58  2  0
 58 59  1  0
 59 60  2  0
 60 61  1  0
 61 62  2  0
 56 63  2  0
 63 64  1  0
 64 65  2  0
 65 66  1  0
 66 67  2  0
 67 68  1  0
 67 69  1  0
 69 70  2  0
 63 71  1  0
 71 72  1  0
 72 73  1  0
 73 74  1  0
 74 75  1  6
 74 76  1  0
 76 77  1  0
 77 78  1  6
 77 79  1  0
 79 80  1  0
 80 81  2  0
 80 82  1  0
 30  4  1  0
 71 45  1  0
 14  9  1  0
 21 16  1  0
 29 23  1  0
 55 50  1  0
 62 57  1  0
 70 64  1  0
M  CHG  3  41  -1  82  -1  83   2
M  END
>  <assay_description>  (245) 
Inhibition of human BSEP overexpressed in Sf9 cell membrane vesicles assessed as uptake of [3H]-taurocholate in presence of ATP measured after 15 to 20 mins by membrane vesicle transport assay

>  <molecule_pref_name>  (245) 
ATORVASTATIN CALCIUM

>  <canonical_smiles>  (245) 
CC(C)c1c(C(=O)Nc2ccccc2)c(-c2ccccc2)c(-c2ccc(F)cc2)n1CC[C@@H](O)C[C@@H](O)CC(=O)[O-].CC(C)c1c(C(=O)Nc2ccccc2)c(-c2ccccc2)c(-c2ccc(F)cc2)n1CC[C@@H](O)C[C@@H](O)CC(=O)[O-].[Ca+2]

>  <pchembl_value>  (245) 
4.89

>  <standard_type>  (245) 
IC50

>  <standard_relation>  (245) 
=

>  <standard_value>  (245) 
13000.0

>  <standard_units>  (245) 
nM

>  <target_pref_name>  (245) 
Bile salt export pump

>  <target_organism>  (245) 
Homo sapiens

$$$$
CHEMBL269732
     RDKit          2D

 57 60  0  0  0  0  0  0  0  0999 V2000
   -6.0205  -12.7993    0.0000 C   0  0  0  0  0  0  0  0  0  0  0  0
   -5.1755  -11.5600    0.0000 C   0  0  0  0  0  0  0  0  0  0  0  0
   -3.6797  -11.6721    0.0000 C   0  0  0  0  0  0  0  0  0  0  0  0
   -2.8347  -10.4327    0.0000 C   0  0  0  0  0  0  0  0  0  0  0  0
   -1.4832  -11.0835    0.0000 C   0  0  0  0  0  0  0  0  0  0  0  0
   -0.0000  -11.3071    0.0000 C   0  0  0  0  0  0  0  0  0  0  0  0
   -0.0000  -12.8071    0.0000 C   0  0  0  0  0  0  0  0  0  0  0  0
    1.4832  -11.0835    0.0000 C   0  0  0  0  0  0  0  0  0  0  0  0
    2.8347  -10.4327    0.0000 C   0  0  0  0  0  0  0  0  0  0  0  0
    3.6797  -11.6721    0.0000 C   0  0  0  0  0  0  0  0  0  0  0  0
    3.9343   -9.4124    0.0000 C   0  0  0  0  0  0  0  0  0  0  0  0
    4.6843   -8.1134    0.0000 C   0  0  0  0  0  0  0  0  0  0  0  0
    6.0806   -8.6614    0.0000 O   0  0  0  0  0  0  0  0  0  0  0  0
    6.3042  -10.1447    0.0000 C   0  0  0  0  0  0  0  0  0  0  0  0
    5.0181   -6.6510    0.0000 C   0  0  0  0  0  0  0  0  0  0  0  0
    4.9060   -5.1552    0.0000 O   0  0  0  0  0  0  0  0  0  0  0  0
    4.3580   -3.7589    0.0000 C   0  0  0  0  0  0  0  0  0  0  0  0
    5.6570   -3.0089    0.0000 O   0  0  0  0  0  0  0  0  0  0  0  0
    3.4227   -2.5862    0.0000 C   0  0  0  0  0  0  0  0  0  0  0  0
    4.4430   -1.4866    0.0000 O   0  0  0  0  0  0  0  0  0  0  0  0
    2.1834   -1.7412    0.0000 C   0  0  0  0  0  0  0  0  0  0  0  0
    2.8342   -0.3897    0.0000 O   0  0  0  0  0  0  0  0  0  0  0  0
    0.7500   -1.2990    0.0000 N   0  0  0  0  0  0  0  0  0  0  0  0
    1.5000    0.0000    0.0000 C   0  0  0  0  0  0  0  0  0  0  0  0
    0.7500    1.2990    0.0000 C   0  0  0  0  0  0  0  0  0  0  0  0
   -0.7500    1.2990    0.0000 C   0  0  0  0  0  0  0  0  0  0  0  0
   -1.5000    0.0000    0.0000 C   0  0  0  0  0  0  0  0  0  0  0  0
   -0.7500   -1.2990    0.0000 C   0  0  0  0  0  0  0  0  0  0  0  0
   -2.1834   -1.7412    0.0000 C   0  0  0  0  0  0  0  0  0  0  0  0
   -2.8342   -0.3897    0.0000 O   0  0  0  0  0  0  0  0  0  0  0  0
   -3.4227   -2.5862    0.0000 O   0  0  0  0  0  0  0  0  0  0  0  0
   -4.3580   -3.7589    0.0000 C   0  0  0  0  0  0  0  0  0  0  0  0
   -5.6570   -3.0089    0.0000 C   0  0  0  0  0  0  0  0  0  0  0  0
   -6.9560   -3.7589    0.0000 C   0  0  0  0  0  0  0  0  0  0  0  0
   -5.6570   -1.5089    0.0000 C   0  0  0  0  0  0  0  0  0  0  0  0
   -6.9560   -0.7589    0.0000 C   0  0  0  0  0  0  0  0  0  0  0  0
   -6.9560    0.7411    0.0000 C   0  0  0  0  0  0  0  0  0  0  0  0
   -8.2551    1.4911    0.0000 C   0  0  0  0  0  0  0  0  0  0  0  0
   -9.5541    0.7411    0.0000 C   0  0  0  0  0  0  0  0  0  0  0  0
  -10.8531    1.4911    0.0000 O   0  0  0  0  0  0  0  0  0  0  0  0
   -9.5541   -0.7589    0.0000 C   0  0  0  0  0  0  0  0  0  0  0  0
  -10.8531   -1.5089    0.0000 O   0  0  0  0  0  0  0  0  0  0  0  0
  -10.8531   -3.0089    0.0000 C   0  0  0  0  0  0  0  0  0  0  0  0
   -8.2551   -1.5089    0.0000 C   0  0  0  0  0  0  0  0  0  0  0  0
   -4.9060   -5.1552    0.0000 C   0  0  0  0  0  0  0  0  0  0  0  0
   -6.3684   -4.8214    0.0000 C   0  0  0  0  0  0  0  0  0  0  0  0
   -5.0181   -6.6510    0.0000 C   0  0  0  0  0  0  0  0  0  0  0  0
   -6.5139   -6.7631    0.0000 O   0  0  0  0  0  0  0  0  0  0  0  0
   -4.6843   -8.1134    0.0000 C   0  0  0  0  0  0  0  0  0  0  0  0
   -3.9343   -9.4124    0.0000 C   0  0  0  0  0  0  0  0  0  0  0  0
   -5.1070  -10.3477    0.0000 O   0  0  0  0  0  0  0  0  0  0  0  0
    5.9023   -3.7843    0.0000 C   0  0  0  0  0  0  0  0  0  0  0  0
    6.3445   -2.3509    0.0000 C   0  0  0  0  0  0  0  0  0  0  0  0
    6.9226   -4.8839    0.0000 C   0  0  0  0  0  0  0  0  0  0  0  0
    6.4805   -6.3172    0.0000 C   0  0  0  0  0  0  0  0  0  0  0  0
    7.5007   -7.4168    0.0000 O   0  0  0  0  0  0  0  0  0  0  0  0
    8.9631   -7.0830    0.0000 C   0  0  0  0  0  0  0  0  0  0  0  0
  1  2  2  0
  2  3  1  0
  4  3  1  1
  4  5  1  0
  5  6  2  0
  6  7  1  0
  6  8  1  0
  8  9  1  0
  9 10  1  1
  9 11  1  0
 11 12  1  0
 12 13  1  1
 13 14  1  0
 12 15  1  0
 15 16  1  1
 16 17  1  0
 17 18  1  6
 17 19  1  0
 19 20  2  0
 19 21  1  0
 21 22  2  0
 21 23  1  0
 23 24  1  0
 24 25  1  0
 25 26  1  0
 26 27  1  0
 28 27  1  6
 28 29  1  0
 29 30  2  0
 29 31  1  0
 31 32  1  0
 32 33  1  1
 33 34  1  0
 33 35  2  0
 36 35  1  1
 36 37  1  0
 37 38  1  0
 38 39  1  0
 39 40  1  6
 39 41  1  0
 41 42  1  1
 42 43  1  0
 41 44  1  0
 32 45  1  0
 45 46  1  1
 45 47  1  0
 47 48  1  6
 47 49  1  0
 49 50  1  0
 50 51  2  0
 17 52  1  0
 52 53  1  6
 52 54  1  0
 54 55  1  0
 55 56  1  6
 56 57  1  0
 50  4  1  0
 55 15  1  0
 28 23  1  0
 44 36  1  0
M  END
>  <assay_description>  (246) 
Inhibition of human BSEP overexpressed in Sf9 cell membrane vesicles assessed as uptake of [3H]-taurocholate in presence of ATP measured after 15 to 20 mins by membrane vesicle transport assay

>  <molecule_pref_name>  (246) 
TACROLIMUS

>  <canonical_smiles>  (246) 
C=CC[C@@H]1/C=C(\C)C[C@H](C)C[C@H](OC)[C@H]2O[C@@](O)(C(=O)C(=O)N3CCCC[C@H]3C(=O)O[C@H](/C(C)=C/[C@@H]3CC[C@@H](O)[C@H](OC)C3)[C@H](C)[C@@H](O)CC1=O)[C@H](C)C[C@@H]2OC

>  <pchembl_value>  (246) 
5.14

>  <standard_type>  (246) 
IC50

>  <standard_relation>  (246) 
=

>  <standard_value>  (246) 
7180.0

>  <standard_units>  (246) 
nM

>  <target_pref_name>  (246) 
Bile salt export pump

>  <target_organism>  (246) 
Homo sapiens

$$$$
CHEMBL1200561
     RDKit          2D

 38 41  0  0  0  0  0  0  0  0999 V2000
    3.7500   -1.2990    0.0000 C   0  0  0  0  0  0  0  0  0  0  0  0
    3.0000    0.0000    0.0000 O   0  0  0  0  0  0  0  0  0  0  0  0
    1.5000    0.0000    0.0000 C   0  0  0  0  0  0  0  0  0  0  0  0
    0.7500   -1.2990    0.0000 C   0  0  0  0  0  0  0  0  0  0  0  0
   -0.7500   -1.2990    0.0000 C   0  0  0  0  0  0  0  0  0  0  0  0
   -1.5000   -2.5981    0.0000 N   0  0  0  0  0  0  0  0  0  0  0  0
   -3.0000   -2.5981    0.0000 C   0  0  0  0  0  0  0  0  0  0  0  0
   -3.7500   -3.8971    0.0000 N   0  0  0  0  0  0  0  0  0  0  0  0
   -5.2500   -3.8971    0.0000 C   0  0  0  0  0  0  0  0  0  0  0  0
   -6.0000   -5.1962    0.0000 C   0  0  0  0  0  0  0  0  0  0  0  0
   -5.2500   -6.4952    0.0000 N   0  0  0  0  0  0  0  0  0  0  0  0
   -6.0000   -7.7942    0.0000 C   0  0  0  0  0  0  0  0  0  0  0  0
   -5.2500   -9.0933    0.0000 O   0  0  0  0  0  0  0  0  0  0  0  0
   -7.5000   -7.7942    0.0000 C   0  0  0  0  0  0  0  0  0  0  0  0
   -8.2500   -6.4952    0.0000 C   0  0  0  0  0  0  0  0  0  0  0  0
   -9.7500   -6.4952    0.0000 O   0  0  0  0  0  0  0  0  0  0  0  0
  -10.5000   -7.7942    0.0000 C   0  0  0  0  0  0  0  0  0  0  0  0
  -12.0000   -7.7942    0.0000 C   0  0  0  0  0  0  0  0  0  0  0  0
  -12.7500   -9.0933    0.0000 C   0  0  0  0  0  0  0  0  0  0  0  0
  -12.0000  -10.3923    0.0000 C   0  0  0  0  0  0  0  0  0  0  0  0
  -10.5000  -10.3923    0.0000 C   0  0  0  0  0  0  0  0  0  0  0  0
   -9.7500   -9.0933    0.0000 C   0  0  0  0  0  0  0  0  0  0  0  0
   -8.2500   -9.0933    0.0000 O   0  0  0  0  0  0  0  0  0  0  0  0
   -3.7500   -6.4952    0.0000 C   0  0  0  0  0  0  0  0  0  0  0  0
   -3.0000   -5.1962    0.0000 C   0  0  0  0  0  0  0  0  0  0  0  0
   -3.7500   -1.2990    0.0000 N   0  0  0  0  0  0  0  0  0  0  0  0
   -3.0000    0.0000    0.0000 C   0  0  0  0  0  0  0  0  0  0  0  0
   -3.7500    1.2990    0.0000 N   0  0  0  0  0  0  0  0  0  0  0  0
   -1.5000    0.0000    0.0000 C   0  0  0  0  0  0  0  0  0  0  0  0
   -0.7500    1.2990    0.0000 C   0  0  0  0  0  0  0  0  0  0  0  0
    0.7500    1.2990    0.0000 C   0  0  0  0  0  0  0  0  0  0  0  0
    1.5000    2.5981    0.0000 O   0  0  0  0  0  0  0  0  0  0  0  0
    3.0000    2.5981    0.0000 C   0  0  0  0  0  0  0  0  0  0  0  0
    0.0000    4.1471    0.0000 C   0  0  0  0  0  0  0  0  0  0  0  0
    1.2990    4.8971    0.0000 S   0  0  0  0  0  0  0  0  0  0  0  0
    2.0490    3.5981    0.0000 O   0  0  0  0  0  0  0  0  0  0  0  0
    0.5490    6.1962    0.0000 O   0  0  0  0  0  0  0  0  0  0  0  0
    2.5981    5.6471    0.0000 O   0  0  0  0  0  0  0  0  0  0  0  0
  1  2  1  0
  2  3  1  0
  3  4  2  0
  4  5  1  0
  5  6  2  0
  6  7  1  0
  7  8  1  0
  8  9  1  0
  9 10  1  0
 10 11  1  0
 11 12  1  0
 12 13  2  0
 12 14  1  0
 14 15  1  0
 15 16  1  0
 16 17  1  0
 17 18  2  0
 18 19  1  0
 19 20  2  0
 20 21  1  0
 21 22  2  0
 22 23  1  0
 11 24  1  0
 24 25  1  0
  7 26  2  0
 26 27  1  0
 27 28  1  0
 27 29  2  0
 29 30  1  0
 30 31  2  0
 31 32  1  0
 32 33  1  0
 34 35  1  0
 35 36  2  0
 35 37  2  0
 35 38  1  0
 31  3  1  0
 29  5  1  0
 25  8  1  0
 23 14  1  0
 22 17  1  0
M  END
>  <assay_description>  (247) 
Inhibition of human BSEP overexpressed in Sf9 cell membrane vesicles assessed as uptake of [3H]-taurocholate in presence of ATP measured after 15 to 20 mins by membrane vesicle transport assay

>  <molecule_pref_name>  (247) 
DOXAZOSIN MESYLATE

>  <canonical_smiles>  (247) 
COc1cc2nc(N3CCN(C(=O)C4COc5ccccc5O4)CC3)nc(N)c2cc1OC.CS(=O)(=O)O

>  <pchembl_value>  (247) 
4.35

>  <standard_type>  (247) 
IC50

>  <standard_relation>  (247) 
=

>  <standard_value>  (247) 
45000.0

>  <standard_units>  (247) 
nM

>  <target_pref_name>  (247) 
Bile salt export pump

>  <target_organism>  (247) 
Homo sapiens

$$$$
CHEMBL1201729
     RDKit          2D

 40 41  0  0  0  0  0  0  0  0999 V2000
    2.5981   -8.1073    0.0000 C   0  0  0  0  0  0  0  0  0  0  0  0
    1.2990   -7.3573    0.0000 C   0  0  0  0  0  0  0  0  0  0  0  0
    1.2990   -5.8573    0.0000 C   0  0  0  0  0  0  0  0  0  0  0  0
   -0.0000   -5.1073    0.0000 C   0  0  0  0  0  0  0  0  0  0  0  0
   -0.0000   -3.6073    0.0000 C   0  0  0  0  0  0  0  0  0  0  0  0
    1.2135   -2.7256    0.0000 O   0  0  0  0  0  0  0  0  0  0  0  0
    0.7500   -1.2990    0.0000 C   0  0  0  0  0  0  0  0  0  0  0  0
    1.5000    0.0000    0.0000 C   0  0  0  0  0  0  0  0  0  0  0  0
    0.7500    1.2990    0.0000 C   0  0  0  0  0  0  0  0  0  0  0  0
   -0.7500    1.2990    0.0000 C   0  0  0  0  0  0  0  0  0  0  0  0
   -1.5000    2.5981    0.0000 N   0  0  0  0  0  0  0  0  0  0  0  0
   -0.7500    3.8971    0.0000 S   0  0  0  0  0  0  0  0  0  0  0  0
    0.0000    5.1962    0.0000 C   0  0  0  0  0  0  0  0  0  0  0  0
    0.5490    3.1471    0.0000 O   0  0  0  0  0  0  0  0  0  0  0  0
   -2.0490    4.6471    0.0000 O   0  0  0  0  0  0  0  0  0  0  0  0
   -1.5000    0.0000    0.0000 C   0  0  0  0  0  0  0  0  0  0  0  0
   -0.7500   -1.2990    0.0000 C   0  0  0  0  0  0  0  0  0  0  0  0
   -1.2135   -2.7256    0.0000 C   0  0  0  0  0  0  0  0  0  0  0  0
   -2.6401   -3.1891    0.0000 C   0  0  0  0  0  0  0  0  0  0  0  0
   -3.7548   -2.1855    0.0000 O   0  0  0  0  0  0  0  0  0  0  0  0
   -2.9520   -4.6564    0.0000 C   0  0  0  0  0  0  0  0  0  0  0  0
   -4.3786   -5.1199    0.0000 C   0  0  0  0  0  0  0  0  0  0  0  0
   -4.6904   -6.5871    0.0000 C   0  0  0  0  0  0  0  0  0  0  0  0
   -3.5757   -7.5908    0.0000 C   0  0  0  0  0  0  0  0  0  0  0  0
   -3.8876   -9.0580    0.0000 O   0  0  0  0  0  0  0  0  0  0  0  0
   -5.3142   -9.5216    0.0000 C   0  0  0  0  0  0  0  0  0  0  0  0
   -5.6260  -10.9888    0.0000 C   0  0  0  0  0  0  0  0  0  0  0  0
   -7.0526  -11.4523    0.0000 C   0  0  0  0  0  0  0  0  0  0  0  0
   -7.3645  -12.9195    0.0000 N   0  0  0  0  0  0  0  0  0  0  0  0
   -8.7911  -13.3831    0.0000 C   0  0  0  0  0  0  0  0  0  0  0  0
   -9.1029  -14.8503    0.0000 C   0  0  0  0  0  0  0  0  0  0  0  0
  -10.5295  -15.3138    0.0000 C   0  0  0  0  0  0  0  0  0  0  0  0
  -10.8414  -16.7810    0.0000 C   0  0  0  0  0  0  0  0  0  0  0  0
   -6.2498  -13.9232    0.0000 C   0  0  0  0  0  0  0  0  0  0  0  0
   -6.5616  -15.3904    0.0000 C   0  0  0  0  0  0  0  0  0  0  0  0
   -5.4469  -16.3941    0.0000 C   0  0  0  0  0  0  0  0  0  0  0  0
   -5.7588  -17.8614    0.0000 C   0  0  0  0  0  0  0  0  0  0  0  0
   -2.1491   -7.1273    0.0000 C   0  0  0  0  0  0  0  0  0  0  0  0
   -1.8373   -5.6601    0.0000 C   0  0  0  0  0  0  0  0  0  0  0  0
    3.5981    0.0000    0.0000 Cl  0  0  0  0  0  0  0  0  0  0  0  0
  1  2  1  0
  2  3  1  0
  3  4  1  0
  4  5  1  0
  5  6  1  0
  6  7  1  0
  7  8  2  0
  8  9  1  0
  9 10  2  0
 10 11  1  0
 11 12  1  0
 12 13  1  0
 12 14  2  0
 12 15  2  0
 10 16  1  0
 16 17  2  0
 17 18  1  0
 18 19  1  0
 19 20  2  0
 19 21  1  0
 21 22  2  0
 22 23  1  0
 23 24  2  0
 24 25  1  0
 25 26  1  0
 26 27  1  0
 27 28  1  0
 28 29  1  0
 29 30  1  0
 30 31  1  0
 31 32  1  0
 32 33  1  0
 29 34  1  0
 34 35  1  0
 35 36  1  0
 36 37  1  0
 24 38  1  0
 38 39  2  0
 18  5  2  0
 39 21  1  0
 17  7  1  0
M  END
>  <assay_description>  (248) 
Inhibition of human BSEP overexpressed in Sf9 cell membrane vesicles assessed as uptake of [3H]-taurocholate in presence of ATP measured after 15 to 20 mins by membrane vesicle transport assay

>  <molecule_pref_name>  (248) 
DRONEDARONE HYDROCHLORIDE

>  <canonical_smiles>  (248) 
CCCCc1oc2ccc(NS(C)(=O)=O)cc2c1C(=O)c1ccc(OCCCN(CCCC)CCCC)cc1.Cl

>  <pchembl_value>  (248) 
4.13

>  <standard_type>  (248) 
IC50

>  <standard_relation>  (248) 
=

>  <standard_value>  (248) 
73900.0

>  <standard_units>  (248) 
nM

>  <target_pref_name>  (248) 
Bile salt export pump

>  <target_organism>  (248) 
Homo sapiens

$$$$
CHEMBL506
     RDKit          2D

 19 20  0  0  0  0  0  0  0  0999 V2000
   -3.0000   -5.1962    0.0000 C   0  0  0  0  0  0  0  0  0  0  0  0
   -1.5000   -5.1962    0.0000 O   0  0  0  0  0  0  0  0  0  0  0  0
   -0.7500   -3.8971    0.0000 C   0  0  0  0  0  0  0  0  0  0  0  0
    0.7500   -3.8971    0.0000 C   0  0  0  0  0  0  0  0  0  0  0  0
    1.5000   -2.5981    0.0000 C   0  0  0  0  0  0  0  0  0  0  0  0
    3.0000   -2.5981    0.0000 N   0  0  0  0  0  0  0  0  0  0  0  0
    3.7500   -3.8971    0.0000 C   0  0  0  0  0  0  0  0  0  0  0  0
    5.2500   -3.8971    0.0000 C   0  0  0  0  0  0  0  0  0  0  0  0
    3.0000   -5.1962    0.0000 C   0  0  0  0  0  0  0  0  0  0  0  0
    3.7500   -6.4952    0.0000 C   0  0  0  0  0  0  0  0  0  0  0  0
    3.0000   -7.7942    0.0000 C   0  0  0  0  0  0  0  0  0  0  0  0
    3.7500   -9.0933    0.0000 N   0  0  0  0  0  0  0  0  0  0  0  0
    0.7500   -1.2990    0.0000 C   0  0  0  0  0  0  0  0  0  0  0  0
    1.5000    0.0000    0.0000 N   0  0  0  0  0  0  0  0  0  0  0  0
    0.7500    1.2990    0.0000 C   0  0  0  0  0  0  0  0  0  0  0  0
   -0.7500    1.2990    0.0000 C   0  0  0  0  0  0  0  0  0  0  0  0
   -1.5000    0.0000    0.0000 C   0  0  0  0  0  0  0  0  0  0  0  0
   -0.7500   -1.2990    0.0000 C   0  0  0  0  0  0  0  0  0  0  0  0
   -1.5000   -2.5981    0.0000 C   0  0  0  0  0  0  0  0  0  0  0  0
  1  2  1  0
  2  3  1  0
  3  4  2  0
  4  5  1  0
  5  6  1  0
  6  7  1  0
  7  8  1  0
  7  9  1  0
  9 10  1  0
 10 11  1  0
 11 12  1  0
  5 13  2  0
 13 14  1  0
 14 15  2  0
 15 16  1  0
 16 17  2  0
 17 18  1  0
 18 19  2  0
 19  3  1  0
 18 13  1  0
M  END
>  <assay_description>  (249) 
Inhibition of human BSEP overexpressed in Sf9 cell membrane vesicles assessed as uptake of [3H]-taurocholate in presence of ATP measured after 15 to 20 mins by membrane vesicle transport assay

>  <molecule_pref_name>  (249) 
PRIMAQUINE

>  <canonical_smiles>  (249) 
COc1cc(NC(C)CCCN)c2ncccc2c1

>  <pchembl_value>  (249) 
4.49

>  <standard_type>  (249) 
IC50

>  <standard_relation>  (249) 
=

>  <standard_value>  (249) 
32700.0

>  <standard_units>  (249) 
nM

>  <target_pref_name>  (249) 
Bile salt export pump

>  <target_organism>  (249) 
Homo sapiens

$$$$
CHEMBL193
     RDKit          2D

 25 26  0  0  0  0  0  0  0  0999 V2000
    5.2500   -1.2990    0.0000 C   0  0  0  0  0  0  0  0  0  0  0  0
    3.7500   -1.2990    0.0000 O   0  0  0  0  0  0  0  0  0  0  0  0
    3.0000    0.0000    0.0000 C   0  0  0  0  0  0  0  0  0  0  0  0
    3.7500    1.2990    0.0000 O   0  0  0  0  0  0  0  0  0  0  0  0
    1.5000    0.0000    0.0000 C   0  0  0  0  0  0  0  0  0  0  0  0
    0.7500   -1.2990    0.0000 C   0  0  0  0  0  0  0  0  0  0  0  0
    1.5000   -2.5981    0.0000 C   0  0  0  0  0  0  0  0  0  0  0  0
   -0.7500   -1.2990    0.0000 N   0  0  0  0  0  0  0  0  0  0  0  0
   -1.5000    0.0000    0.0000 C   0  0  0  0  0  0  0  0  0  0  0  0
   -3.0000    0.0000    0.0000 C   0  0  0  0  0  0  0  0  0  0  0  0
   -0.7500    1.2990    0.0000 C   0  0  0  0  0  0  0  0  0  0  0  0
   -1.5000    2.5981    0.0000 C   0  0  0  0  0  0  0  0  0  0  0  0
   -1.2803    3.3644    0.0000 O   0  0  0  0  0  0  0  0  0  0  0  0
   -3.0000    2.5981    0.0000 O   0  0  0  0  0  0  0  0  0  0  0  0
   -3.7500    3.8971    0.0000 C   0  0  0  0  0  0  0  0  0  0  0  0
    0.7500    1.2990    0.0000 C   0  0  0  0  0  0  0  0  0  0  0  0
    1.5000    2.5981    0.0000 C   0  0  0  0  0  0  0  0  0  0  0  0
    3.0000    2.5981    0.0000 C   0  0  0  0  0  0  0  0  0  0  0  0
    3.7500    3.8971    0.0000 C   0  0  0  0  0  0  0  0  0  0  0  0
    3.0000    5.1962    0.0000 C   0  0  0  0  0  0  0  0  0  0  0  0
    1.5000    5.1962    0.0000 C   0  0  0  0  0  0  0  0  0  0  0  0
    0.7500    3.8971    0.0000 C   0  0  0  0  0  0  0  0  0  0  0  0
   -0.7500    3.8971    0.0000 N   0  0  0  0  0  4  0  0  0  0  0  0
   -1.7920    2.8182    0.0000 O   0  0  0  0  0  0  0  0  0  0  0  0
   -1.5000    5.1962    0.0000 O   0  0  0  0  0  1  0  0  0  0  0  0
  1  2  1  0
  2  3  1  0
  3  4  2  0
  3  5  1  0
  5  6  2  0
  6  7  1  0
  6  8  1  0
  8  9  1  0
  9 10  1  0
  9 11  2  0
 11 12  1  0
 12 13  2  0
 12 14  1  0
 14 15  1  0
 11 16  1  0
 16 17  1  0
 17 18  2  0
 18 19  1  0
 19 20  2  0
 20 21  1  0
 21 22  2  0
 22 23  1  0
 23 24  2  0
 23 25  1  0
 16  5  1  0
 22 17  1  0
M  CHG  2  23   1  25  -1
M  END
>  <assay_description>  (250) 
Inhibition of human BSEP overexpressed in Sf9 cell membrane vesicles assessed as uptake of [3H]-taurocholate in presence of ATP measured after 15 to 20 mins by membrane vesicle transport assay

>  <molecule_pref_name>  (250) 
NIFEDIPINE

>  <canonical_smiles>  (250) 
COC(=O)C1=C(C)NC(C)=C(C(=O)OC)C1c1ccccc1[N+](=O)[O-]

>  <pchembl_value>  (250) 
4.19

>  <standard_type>  (250) 
IC50

>  <standard_relation>  (250) 
=

>  <standard_value>  (250) 
64000.0

>  <standard_units>  (250) 
nM

>  <target_pref_name>  (250) 
Bile salt export pump

>  <target_organism>  (250) 
Homo sapiens

$$$$
CHEMBL1138
     RDKit          2D

 30 33  0  0  0  0  0  0  0  0999 V2000
   -1.9979   -6.1334    0.0000 O   0  0  0  0  0  0  0  0  0  0  0  0
   -0.6989   -6.8834    0.0000 C   0  0  0  0  0  0  0  0  0  0  0  0
    0.7500   -6.4952    0.0000 C   0  0  0  0  0  0  0  0  0  0  0  0
    1.5000   -5.1962    0.0000 C   0  0  0  0  0  0  0  0  0  0  0  0
    0.7500   -3.8971    0.0000 C   0  0  0  0  0  0  0  0  0  0  0  0
    1.5000   -2.5981    0.0000 C   0  0  0  0  0  0  0  0  0  0  0  0
    3.0000   -2.5981    0.0000 O   0  0  0  0  0  0  0  0  0  0  0  0
    0.7500   -1.2990    0.0000 C   0  0  0  0  0  0  0  0  0  0  0  0
    1.5000    0.0000    0.0000 C   0  0  0  0  0  0  0  0  0  0  0  0
    0.7500    1.2990    0.0000 C   0  0  0  0  0  0  0  0  0  0  0  0
   -0.7500    1.2990    0.0000 C   0  0  0  0  0  0  0  0  0  0  0  0
   -1.5000    2.5981    0.0000 F   0  0  0  0  0  0  0  0  0  0  0  0
   -1.5000    0.0000    0.0000 C   0  0  0  0  0  0  0  0  0  0  0  0
   -0.7500   -1.2990    0.0000 C   0  0  0  0  0  0  0  0  0  0  0  0
    1.1382   -7.9441    0.0000 C   0  0  0  0  0  0  0  0  0  0  0  0
    2.4373   -8.6941    0.0000 C   0  0  0  0  0  0  0  0  0  0  0  0
    2.4373  -10.1941    0.0000 C   0  0  0  0  0  0  0  0  0  0  0  0
    3.7363  -10.9441    0.0000 C   0  0  0  0  0  0  0  0  0  0  0  0
    5.0353  -10.1941    0.0000 C   0  0  0  0  0  0  0  0  0  0  0  0
    6.3344  -10.9441    0.0000 O   0  0  0  0  0  0  0  0  0  0  0  0
    5.0353   -8.6941    0.0000 C   0  0  0  0  0  0  0  0  0  0  0  0
    3.7363   -7.9441    0.0000 C   0  0  0  0  0  0  0  0  0  0  0  0
   -0.3107   -8.3323    0.0000 N   0  0  0  0  0  0  0  0  0  0  0  0
   -1.0607   -9.6313    0.0000 C   0  0  0  0  0  0  0  0  0  0  0  0
   -2.5607   -9.6313    0.0000 C   0  0  0  0  0  0  0  0  0  0  0  0
   -3.3107  -10.9304    0.0000 C   0  0  0  0  0  0  0  0  0  0  0  0
   -2.5607  -12.2294    0.0000 C   0  0  0  0  0  0  0  0  0  0  0  0
   -3.3107  -13.5285    0.0000 F   0  0  0  0  0  0  0  0  0  0  0  0
   -1.0607  -12.2294    0.0000 C   0  0  0  0  0  0  0  0  0  0  0  0
   -0.3107  -10.9304    0.0000 C   0  0  0  0  0  0  0  0  0  0  0  0
  1  2  2  0
  2  3  1  0
  3  4  1  6
  4  5  1  0
  5  6  1  0
  6  7  1  1
  6  8  1  0
  8  9  2  0
  9 10  1  0
 10 11  2  0
 11 12  1  0
 11 13  1  0
 13 14  2  0
  3 15  1  0
 15 16  1  1
 16 17  2  0
 17 18  1  0
 18 19  2  0
 19 20  1  0
 19 21  1  0
 21 22  2  0
 15 23  1  0
 23 24  1  0
 24 25  2  0
 25 26  1  0
 26 27  2  0
 27 28  1  0
 27 29  1  0
 29 30  2  0
 23  2  1  0
 30 24  1  0
 14  8  1  0
 22 16  1  0
M  END
>  <assay_description>  (251) 
Inhibition of human BSEP overexpressed in Sf9 cell membrane vesicles assessed as uptake of [3H]-taurocholate in presence of ATP measured after 15 to 20 mins by membrane vesicle transport assay

>  <molecule_pref_name>  (251) 
EZETIMIBE

>  <canonical_smiles>  (251) 
O=C1[C@H](CC[C@H](O)c2ccc(F)cc2)[C@@H](c2ccc(O)cc2)N1c1ccc(F)cc1

>  <pchembl_value>  (251) 
4.25

>  <standard_type>  (251) 
IC50

>  <standard_relation>  (251) 
=

>  <standard_value>  (251) 
56000.0

>  <standard_units>  (251) 
nM

>  <target_pref_name>  (251) 
Bile salt export pump

>  <target_organism>  (251) 
Homo sapiens

$$$$
CHEMBL1484
     RDKit          2D

 35 37  0  0  0  0  0  0  0  0999 V2000
    5.2500   -1.2990    0.0000 C   0  0  0  0  0  0  0  0  0  0  0  0
    3.7500   -1.2990    0.0000 O   0  0  0  0  0  0  0  0  0  0  0  0
    3.0000    0.0000    0.0000 C   0  0  0  0  0  0  0  0  0  0  0  0
    3.7500    1.2990    0.0000 O   0  0  0  0  0  0  0  0  0  0  0  0
    1.5000    0.0000    0.0000 C   0  0  0  0  0  0  0  0  0  0  0  0
    0.7500   -1.2990    0.0000 C   0  0  0  0  0  0  0  0  0  0  0  0
    1.5000   -2.5981    0.0000 C   0  0  0  0  0  0  0  0  0  0  0  0
   -0.7500   -1.2990    0.0000 N   0  0  0  0  0  0  0  0  0  0  0  0
   -1.5000    0.0000    0.0000 C   0  0  0  0  0  0  0  0  0  0  0  0
   -3.0000    0.0000    0.0000 C   0  0  0  0  0  0  0  0  0  0  0  0
   -0.7500    1.2990    0.0000 C   0  0  0  0  0  0  0  0  0  0  0  0
   -1.5000    2.5981    0.0000 C   0  0  0  0  0  0  0  0  0  0  0  0
   -0.7500    3.8971    0.0000 O   0  0  0  0  0  0  0  0  0  0  0  0
   -3.0000    2.5981    0.0000 O   0  0  0  0  0  0  0  0  0  0  0  0
   -3.7500    3.8971    0.0000 C   0  0  0  0  0  0  0  0  0  0  0  0
   -5.2500    3.8971    0.0000 C   0  0  0  0  0  0  0  0  0  0  0  0
   -6.0000    5.1962    0.0000 N   0  0  0  0  0  0  0  0  0  0  0  0
   -7.5000    5.1962    0.0000 C   0  0  0  0  0  0  0  0  0  0  0  0
   -5.2500    6.4952    0.0000 C   0  0  0  0  0  0  0  0  0  0  0  0
   -6.0000    7.7942    0.0000 C   0  0  0  0  0  0  0  0  0  0  0  0
   -5.2500    9.0933    0.0000 C   0  0  0  0  0  0  0  0  0  0  0  0
   -6.0000   10.3923    0.0000 C   0  0  0  0  0  0  0  0  0  0  0  0
   -7.5000   10.3923    0.0000 C   0  0  0  0  0  0  0  0  0  0  0  0
   -8.2500    9.0933    0.0000 C   0  0  0  0  0  0  0  0  0  0  0  0
   -7.5000    7.7942    0.0000 C   0  0  0  0  0  0  0  0  0  0  0  0
    0.7500    1.2990    0.0000 C   0  0  0  0  0  0  0  0  0  0  0  0
    1.5000    2.5981    0.0000 C   0  0  0  0  0  0  0  0  0  0  0  0
    3.0000    2.5981    0.0000 C   0  0  0  0  0  0  0  0  0  0  0  0
    3.7500    3.8971    0.0000 C   0  0  0  0  0  0  0  0  0  0  0  0
    3.0000    5.1962    0.0000 C   0  0  0  0  0  0  0  0  0  0  0  0
    1.5000    5.1962    0.0000 C   0  0  0  0  0  0  0  0  0  0  0  0
    0.7500    6.4952    0.0000 N   0  0  0  0  0  4  0  0  0  0  0  0
   -0.7500    6.4952    0.0000 O   0  0  0  0  0  0  0  0  0  0  0  0
    1.5000    7.7942    0.0000 O   0  0  0  0  0  1  0  0  0  0  0  0
    0.7500    3.8971    0.0000 C   0  0  0  0  0  0  0  0  0  0  0  0
  1  2  1  0
  2  3  1  0
  3  4  2  0
  3  5  1  0
  5  6  2  0
  6  7  1  0
  6  8  1  0
  8  9  1  0
  9 10  1  0
  9 11  2  0
 11 12  1  0
 12 13  2  0
 12 14  1  0
 14 15  1  0
 15 16  1  0
 16 17  1  0
 17 18  1  0
 17 19  1  0
 19 20  1  0
 20 21  2  0
 21 22  1  0
 22 23  2  0
 23 24  1  0
 24 25  2  0
 11 26  1  0
 26 27  1  0
 27 28  2  0
 28 29  1  0
 29 30  2  0
 30 31  1  0
 31 32  1  0
 32 33  2  0
 32 34  1  0
 31 35  2  0
 26  5  1  0
 35 27  1  0
 25 20  1  0
M  CHG  2  32   1  34  -1
M  END
>  <assay_description>  (252) 
Inhibition of human BSEP overexpressed in Sf9 cell membrane vesicles assessed as uptake of [3H]-taurocholate in presence of ATP measured after 15 to 20 mins by membrane vesicle transport assay

>  <molecule_pref_name>  (252) 
NICARDIPINE

>  <canonical_smiles>  (252) 
COC(=O)C1=C(C)NC(C)=C(C(=O)OCCN(C)Cc2ccccc2)C1c1cccc([N+](=O)[O-])c1

>  <pchembl_value>  (252) 
5.10

>  <standard_type>  (252) 
IC50

>  <standard_relation>  (252) 
=

>  <standard_value>  (252) 
7870.0

>  <standard_units>  (252) 
nM

>  <target_pref_name>  (252) 
Bile salt export pump

>  <target_organism>  (252) 
Homo sapiens

$$$$
CHEMBL1421
     RDKit          2D

 33 36  0  0  0  0  0  0  0  0999 V2000
    3.0000    0.0000    0.0000 C   0  0  0  0  0  0  0  0  0  0  0  0
    1.5000    0.0000    0.0000 C   0  0  0  0  0  0  0  0  0  0  0  0
    0.7500   -1.2990    0.0000 N   0  0  0  0  0  0  0  0  0  0  0  0
   -0.7500   -1.2990    0.0000 C   0  0  0  0  0  0  0  0  0  0  0  0
   -1.5000   -2.5981    0.0000 N   0  0  0  0  0  0  0  0  0  0  0  0
   -3.0000   -2.5981    0.0000 C   0  0  0  0  0  0  0  0  0  0  0  0
   -3.8817   -3.8116    0.0000 N   0  0  0  0  0  0  0  0  0  0  0  0
   -5.3083   -3.3481    0.0000 C   0  0  0  0  0  0  0  0  0  0  0  0
   -5.3083   -1.8481    0.0000 C   0  0  0  0  0  0  0  0  0  0  0  0
   -6.5218   -0.9664    0.0000 C   0  0  0  0  0  0  0  0  0  0  0  0
   -7.8921   -1.5765    0.0000 O   0  0  0  0  0  0  0  0  0  0  0  0
   -6.3650    0.5254    0.0000 N   0  0  0  0  0  0  0  0  0  0  0  0
   -7.5785    1.4071    0.0000 C   0  0  0  0  0  0  0  0  0  0  0  0
   -7.4217    2.8988    0.0000 C   0  0  0  0  0  0  0  0  0  0  0  0
   -6.0514    3.5090    0.0000 C   0  0  0  0  0  0  0  0  0  0  0  0
   -8.6353    3.7805    0.0000 C   0  0  0  0  0  0  0  0  0  0  0  0
  -10.0056    3.1704    0.0000 C   0  0  0  0  0  0  0  0  0  0  0  0
  -10.1624    1.6786    0.0000 C   0  0  0  0  0  0  0  0  0  0  0  0
   -8.9488    0.7970    0.0000 C   0  0  0  0  0  0  0  0  0  0  0  0
   -9.1056   -0.6948    0.0000 Cl  0  0  0  0  0  0  0  0  0  0  0  0
   -3.8817   -1.3846    0.0000 S   0  0  0  0  0  0  0  0  0  0  0  0
   -1.5000    0.0000    0.0000 C   0  0  0  0  0  0  0  0  0  0  0  0
   -0.7500    1.2990    0.0000 C   0  0  0  0  0  0  0  0  0  0  0  0
   -1.5000    2.5981    0.0000 N   0  0  0  0  0  0  0  0  0  0  0  0
   -0.7500    3.8971    0.0000 C   0  0  0  0  0  0  0  0  0  0  0  0
   -1.5000    5.1962    0.0000 C   0  0  0  0  0  0  0  0  0  0  0  0
   -3.0000    5.1962    0.0000 N   0  0  0  0  0  0  0  0  0  0  0  0
   -3.7500    6.4952    0.0000 C   0  0  0  0  0  0  0  0  0  0  0  0
   -3.0000    7.7942    0.0000 C   0  0  0  0  0  0  0  0  0  0  0  0
   -3.7500    9.0933    0.0000 O   0  0  0  0  0  0  0  0  0  0  0  0
   -3.7500    3.8971    0.0000 C   0  0  0  0  0  0  0  0  0  0  0  0
   -3.0000    2.5981    0.0000 C   0  0  0  0  0  0  0  0  0  0  0  0
    0.7500    1.2990    0.0000 N   0  0  0  0  0  0  0  0  0  0  0  0
  1  2  1  0
  2  3  2  0
  3  4  1  0
  4  5  1  0
  5  6  1  0
  6  7  2  0
  7  8  1  0
  8  9  2  0
  9 10  1  0
 10 11  2  0
 10 12  1  0
 12 13  1  0
 13 14  2  0
 14 15  1  0
 14 16  1  0
 16 17  2  0
 17 18  1  0
 18 19  2  0
 19 20  1  0
  9 21  1  0
  4 22  2  0
 22 23  1  0
 23 24  1  0
 24 25  1  0
 25 26  1  0
 26 27  1  0
 27 28  1  0
 28 29  1  0
 29 30  1  0
 27 31  1  0
 31 32  1  0
 23 33  2  0
 33  2  1  0
 21  6  1  0
 32 24  1  0
 19 13  1  0
M  END
>  <assay_description>  (253) 
Inhibition of human BSEP overexpressed in Sf9 cell membrane vesicles assessed as uptake of [3H]-taurocholate in presence of ATP measured after 15 to 20 mins by membrane vesicle transport assay

>  <molecule_pref_name>  (253) 
DASATINIB

>  <canonical_smiles>  (253) 
Cc1nc(Nc2ncc(C(=O)Nc3c(C)cccc3Cl)s2)cc(N2CCN(CCO)CC2)n1

>  <pchembl_value>  (253) 
4.88

>  <standard_type>  (253) 
IC50

>  <standard_relation>  (253) 
=

>  <standard_value>  (253) 
13100.0

>  <standard_units>  (253) 
nM

>  <target_pref_name>  (253) 
Bile salt export pump

>  <target_organism>  (253) 
Homo sapiens

$$$$
CHEMBL1503
     RDKit          2D

 24 26  0  0  0  0  0  0  0  0999 V2000
    3.7500   -1.2990    0.0000 C   0  0  0  0  0  0  0  0  0  0  0  0
    3.0000    0.0000    0.0000 O   0  0  0  0  0  0  0  0  0  0  0  0
    1.5000    0.0000    0.0000 C   0  0  0  0  0  0  0  0  0  0  0  0
    0.7500   -1.2990    0.0000 C   0  0  0  0  0  0  0  0  0  0  0  0
   -0.7500   -1.2990    0.0000 C   0  0  0  0  0  0  0  0  0  0  0  0
   -1.5000    0.0000    0.0000 C   0  0  0  0  0  0  0  0  0  0  0  0
   -2.9672    0.3119    0.0000 N   0  0  0  0  0  0  0  0  0  0  0  0
   -3.1240    1.8037    0.0000 C   0  0  0  0  0  0  0  0  0  0  0  0
   -4.4231    2.5537    0.0000 S   0  0  0  0  0  3  0  0  0  0  0  0
   -5.7221    1.8037    0.0000 O   0  0  0  0  0  1  0  0  0  0  0  0
   -4.4231    4.0537    0.0000 C   0  0  0  0  0  0  0  0  0  0  0  0
   -5.7221    4.8037    0.0000 C   0  0  0  0  0  0  0  0  0  0  0  0
   -5.7221    6.3037    0.0000 N   0  0  0  0  0  0  0  0  0  0  0  0
   -7.0211    7.0537    0.0000 C   0  0  0  0  0  0  0  0  0  0  0  0
   -8.3202    6.3037    0.0000 C   0  0  0  0  0  0  0  0  0  0  0  0
   -9.6192    7.0537    0.0000 C   0  0  0  0  0  0  0  0  0  0  0  0
   -8.3202    4.8037    0.0000 C   0  0  0  0  0  0  0  0  0  0  0  0
   -9.6192    4.0537    0.0000 O   0  0  0  0  0  0  0  0  0  0  0  0
   -9.6192    2.5537    0.0000 C   0  0  0  0  0  0  0  0  0  0  0  0
   -7.0211    4.0537    0.0000 C   0  0  0  0  0  0  0  0  0  0  0  0
   -7.0211    2.5537    0.0000 C   0  0  0  0  0  0  0  0  0  0  0  0
   -1.7537    2.4138    0.0000 N   0  0  0  0  0  0  0  0  0  0  0  0
   -0.7500    1.2990    0.0000 C   0  0  0  0  0  0  0  0  0  0  0  0
    0.7500    1.2990    0.0000 C   0  0  0  0  0  0  0  0  0  0  0  0
  1  2  1  0
  2  3  1  0
  3  4  2  0
  4  5  1  0
  5  6  2  0
  6  7  1  0
  7  8  1  0
  8  9  1  0
  9 10  1  0
  9 11  1  0
 11 12  1  0
 12 13  2  0
 13 14  1  0
 14 15  2  0
 15 16  1  0
 15 17  1  0
 17 18  1  0
 18 19  1  0
 17 20  2  0
 20 21  1  0
  8 22  2  0
 22 23  1  0
 23 24  2  0
 24  3  1  0
 23  6  1  0
 20 12  1  0
M  CHG  2   9   1  10  -1
M  END
>  <assay_description>  (254) 
Inhibition of human BSEP overexpressed in Sf9 cell membrane vesicles assessed as uptake of [3H]-taurocholate in presence of ATP measured after 15 to 20 mins by membrane vesicle transport assay

>  <molecule_pref_name>  (254) 
OMEPRAZOLE

>  <canonical_smiles>  (254) 
COc1ccc2[nH]c([S+]([O-])Cc3ncc(C)c(OC)c3C)nc2c1

>  <pchembl_value>  (254) 
4.00

>  <standard_type>  (254) 
IC50

>  <standard_relation>  (254) 
=

>  <standard_value>  (254) 
99000.0

>  <standard_units>  (254) 
nM

>  <target_pref_name>  (254) 
Bile salt export pump

>  <target_organism>  (254) 
Homo sapiens

$$$$
CHEMBL502
     RDKit          2D

 28 31  0  0  0  0  0  0  0  0999 V2000
    3.7500   -1.2990    0.0000 C   0  0  0  0  0  0  0  0  0  0  0  0
    3.0000    0.0000    0.0000 O   0  0  0  0  0  0  0  0  0  0  0  0
    1.5000    0.0000    0.0000 C   0  0  0  0  0  0  0  0  0  0  0  0
    0.7500   -1.2990    0.0000 C   0  0  0  0  0  0  0  0  0  0  0  0
   -0.7500   -1.2990    0.0000 C   0  0  0  0  0  0  0  0  0  0  0  0
   -1.5000    0.0000    0.0000 C   0  0  0  0  0  0  0  0  0  0  0  0
   -0.7500    1.2990    0.0000 C   0  0  0  0  0  0  0  0  0  0  0  0
    0.7500    1.2990    0.0000 C   0  0  0  0  0  0  0  0  0  0  0  0
    1.5000    2.5981    0.0000 O   0  0  0  0  0  0  0  0  0  0  0  0
    0.7500    3.8971    0.0000 C   0  0  0  0  0  0  0  0  0  0  0  0
   -2.9672   -0.3119    0.0000 C   0  0  0  0  0  0  0  0  0  0  0  0
   -4.0819    0.6918    0.0000 O   0  0  0  0  0  0  0  0  0  0  0  0
   -3.1240   -1.8037    0.0000 C   0  0  0  0  0  0  0  0  0  0  0  0
   -4.4231   -2.5537    0.0000 C   0  0  0  0  0  0  0  0  0  0  0  0
   -5.7221   -1.8037    0.0000 C   0  0  0  0  0  0  0  0  0  0  0  0
   -5.7221   -0.3037    0.0000 C   0  0  0  0  0  0  0  0  0  0  0  0
   -7.0211    0.4463    0.0000 C   0  0  0  0  0  0  0  0  0  0  0  0
   -8.3202   -0.3037    0.0000 N   0  0  0  0  0  0  0  0  0  0  0  0
   -9.6192    0.4463    0.0000 C   0  0  0  0  0  0  0  0  0  0  0  0
   -9.6192    1.9463    0.0000 C   0  0  0  0  0  0  0  0  0  0  0  0
   -8.3202    2.6963    0.0000 C   0  0  0  0  0  0  0  0  0  0  0  0
   -8.3202    4.1963    0.0000 C   0  0  0  0  0  0  0  0  0  0  0  0
   -9.6192    4.9463    0.0000 C   0  0  0  0  0  0  0  0  0  0  0  0
  -10.9182    4.1963    0.0000 C   0  0  0  0  0  0  0  0  0  0  0  0
  -10.9182    2.6963    0.0000 C   0  0  0  0  0  0  0  0  0  0  0  0
   -8.3202   -1.8037    0.0000 C   0  0  0  0  0  0  0  0  0  0  0  0
   -7.0211   -2.5537    0.0000 C   0  0  0  0  0  0  0  0  0  0  0  0
   -1.7537   -2.4138    0.0000 C   0  0  0  0  0  0  0  0  0  0  0  0
  1  2  1  0
  2  3  1  0
  3  4  2  0
  4  5  1  0
  5  6  2  0
  6  7  1  0
  7  8  2  0
  8  9  1  0
  9 10  1  0
  6 11  1  0
 11 12  2  0
 11 13  1  0
 13 14  1  0
 14 15  1  0
 15 16  1  0
 16 17  1  0
 17 18  1  0
 18 19  1  0
 19 20  1  0
 20 21  2  0
 21 22  1  0
 22 23  2  0
 23 24  1  0
 24 25  2  0
 18 26  1  0
 26 27  1  0
 13 28  1  0
  8  3  1  0
 27 15  1  0
 28  5  1  0
 25 20  1  0
M  END
>  <assay_description>  (255) 
Inhibition of human BSEP overexpressed in Sf9 cell membrane vesicles assessed as uptake of [3H]-taurocholate in presence of ATP measured after 15 to 20 mins by membrane vesicle transport assay

>  <molecule_pref_name>  (255) 
DONEPEZIL

>  <canonical_smiles>  (255) 
COc1cc2c(cc1OC)C(=O)C(CC1CCN(Cc3ccccc3)CC1)C2

>  <pchembl_value>  (255) 
4.11

>  <standard_type>  (255) 
IC50

>  <standard_relation>  (255) 
=

>  <standard_value>  (255) 
78000.0

>  <standard_units>  (255) 
nM

>  <target_pref_name>  (255) 
Bile salt export pump

>  <target_organism>  (255) 
Homo sapiens

$$$$
CHEMBL1096885
     RDKit          2D

 51 55  0  0  0  0  0  0  0  0999 V2000
   -4.3044  -18.8588    0.0000 C   0  0  0  0  0  0  0  0  0  0  0  0
   -3.1553  -17.8947    0.0000 C   0  0  0  0  0  0  0  0  0  0  0  0
   -3.4158  -16.4174    0.0000 C   0  0  0  0  0  0  0  0  0  0  0  0
   -2.2667  -15.4533    0.0000 C   0  0  0  0  0  0  0  0  0  0  0  0
   -2.5272  -13.9761    0.0000 C   0  0  0  0  0  0  0  0  0  0  0  0
   -3.9367  -13.4630    0.0000 O   0  0  0  0  0  0  0  0  0  0  0  0
   -1.3781  -13.0119    0.0000 O   0  0  0  0  0  0  0  0  0  0  0  0
   -1.6386  -11.5347    0.0000 C   0  0  0  0  0  0  0  0  0  0  0  0
   -0.4895  -10.5705    0.0000 C   0  0  0  0  0  0  0  0  0  0  0  0
    0.9200  -11.0835    0.0000 O   0  0  0  0  0  0  0  0  0  0  0  0
   -0.7500   -9.0933    0.0000 C   0  0  0  0  0  0  0  0  0  0  0  0
   -2.1595   -9.6063    0.0000 O   0  0  0  0  0  0  0  0  0  0  0  0
   -1.5000   -7.7942    0.0000 C   0  0  0  0  0  0  0  0  0  0  0  0
   -0.7500   -6.4952    0.0000 C   0  0  0  0  0  0  0  0  0  0  0  0
   -1.5000   -5.1962    0.0000 C   0  0  0  0  0  0  0  0  0  0  0  0
   -3.0000   -5.1962    0.0000 O   0  0  0  0  0  0  0  0  0  0  0  0
   -0.7500   -3.8971    0.0000 C   0  0  0  0  0  0  0  0  0  0  0  0
    0.7500   -3.8971    0.0000 C   0  0  0  0  0  0  0  0  0  0  0  0
    1.5000   -5.1962    0.0000 C   0  0  0  0  0  0  0  0  0  0  0  0
    3.0000   -5.1962    0.0000 O   0  0  0  0  0  0  0  0  0  0  0  0
    0.7500   -6.4952    0.0000 C   0  0  0  0  0  0  0  0  0  0  0  0
    1.5000   -7.7942    0.0000 C   0  0  0  0  0  0  0  0  0  0  0  0
    3.0000   -7.7942    0.0000 O   0  0  0  0  0  0  0  0  0  0  0  0
    3.7500   -9.0933    0.0000 C   0  0  0  0  0  0  0  0  0  0  0  0
    3.0000  -10.3923    0.0000 C   0  0  0  0  0  0  0  0  0  0  0  0
    3.7500  -11.6913    0.0000 C   0  0  0  0  0  0  0  0  0  0  0  0
    3.0000  -12.9904    0.0000 N   0  0  0  0  0  0  0  0  0  0  0  0
    3.7500  -14.2894    0.0000 C   0  0  0  0  0  0  0  0  0  0  0  0
    5.2500  -14.2894    0.0000 O   0  0  0  0  0  0  0  0  0  0  0  0
    3.0000  -15.5885    0.0000 C   0  0  0  0  0  0  0  0  0  0  0  0
    2.2500  -16.8875    0.0000 F   0  0  0  0  0  0  0  0  0  0  0  0
    4.2990  -16.3385    0.0000 F   0  0  0  0  0  0  0  0  0  0  0  0
    1.7010  -14.8385    0.0000 F   0  0  0  0  0  0  0  0  0  0  0  0
    5.2500  -11.6913    0.0000 C   0  0  0  0  0  0  0  0  0  0  0  0
    6.0000  -12.9904    0.0000 O   0  0  0  0  0  0  0  0  0  0  0  0
    6.0000  -10.3923    0.0000 C   0  0  0  0  0  0  0  0  0  0  0  0
    7.5000  -10.3923    0.0000 C   0  0  0  0  0  0  0  0  0  0  0  0
    5.2500   -9.0933    0.0000 O   0  0  0  0  0  0  0  0  0  0  0  0
    0.7500   -9.0933    0.0000 C   0  0  0  0  0  0  0  0  0  0  0  0
    1.5000   -2.5981    0.0000 C   0  0  0  0  0  0  0  0  0  0  0  0
    3.0000   -2.5981    0.0000 O   0  0  0  0  0  0  0  0  0  0  0  0
    0.7500   -1.2990    0.0000 C   0  0  0  0  0  0  0  0  0  0  0  0
    1.5000    0.0000    0.0000 C   0  0  0  0  0  0  0  0  0  0  0  0
    3.0000    0.0000    0.0000 O   0  0  0  0  0  0  0  0  0  0  0  0
    3.7500    1.2990    0.0000 C   0  0  0  0  0  0  0  0  0  0  0  0
    0.7500    1.2990    0.0000 C   0  0  0  0  0  0  0  0  0  0  0  0
   -0.7500    1.2990    0.0000 C   0  0  0  0  0  0  0  0  0  0  0  0
   -1.5000    0.0000    0.0000 C   0  0  0  0  0  0  0  0  0  0  0  0
   -0.7500   -1.2990    0.0000 C   0  0  0  0  0  0  0  0  0  0  0  0
   -1.5000   -2.5981    0.0000 C   0  0  0  0  0  0  0  0  0  0  0  0
   -3.0000   -2.5981    0.0000 O   0  0  0  0  0  0  0  0  0  0  0  0
  1  2  1  0
  2  3  1  0
  3  4  1  0
  4  5  1  0
  5  6  2  0
  5  7  1  0
  7  8  1  0
  8  9  1  0
  9 10  2  0
  9 11  1  0
 11 12  1  1
 11 13  1  0
 13 14  1  0
 14 15  2  0
 15 16  1  0
 15 17  1  0
 17 18  2  0
 18 19  1  0
 19 20  1  0
 19 21  2  0
 21 22  1  0
 22 23  1  1
 24 23  1  6
 24 25  1  0
 25 26  1  0
 26 27  1  1
 27 28  1  0
 28 29  2  0
 28 30  1  0
 30 31  1  0
 30 32  1  0
 30 33  1  0
 26 34  1  0
 34 35  1  1
 34 36  1  0
 36 37  1  1
 36 38  1  0
 22 39  1  0
 18 40  1  0
 40 41  2  0
 40 42  1  0
 42 43  2  0
 43 44  1  0
 44 45  1  0
 43 46  1  0
 46 47  2  0
 47 48  1  0
 48 49  2  0
 49 50  1  0
 50 51  2  0
 39 11  1  0
 49 42  1  0
 21 14  1  0
 38 24  1  0
 50 17  1  0
M  END
>  <assay_description>  (256) 
Inhibition of human BSEP overexpressed in Sf9 cell membrane vesicles assessed as uptake of [3H]-taurocholate in presence of ATP measured after 15 to 20 mins by membrane vesicle transport assay

>  <molecule_pref_name>  (256) 
VALRUBICIN

>  <canonical_smiles>  (256) 
CCCCC(=O)OCC(=O)[C@]1(O)Cc2c(O)c3c(c(O)c2[C@@H](O[C@H]2C[C@H](NC(=O)C(F)(F)F)[C@H](O)[C@H](C)O2)C1)C(=O)c1c(OC)cccc1C3=O

>  <pchembl_value>  (256) 
4.62

>  <standard_type>  (256) 
IC50

>  <standard_relation>  (256) 
=

>  <standard_value>  (256) 
24100.0

>  <standard_units>  (256) 
nM

>  <target_pref_name>  (256) 
Bile salt export pump

>  <target_organism>  (256) 
Homo sapiens

$$$$
CHEMBL1509
     RDKit          2D

 27 33  0  0  0  0  0  0  0  0999 V2000
    2.0297    0.1917    0.0000 C   0  0  0  0  0  0  0  0  0  0  0  0
    1.8209    1.6771    0.0000 C   0  0  0  0  0  0  0  0  0  0  0  0
    3.1199    0.9271    0.0000 C   0  0  0  0  0  0  0  0  0  0  0  0
    4.4190    1.6771    0.0000 C   0  0  0  0  0  0  0  0  0  0  0  0
    4.4190    3.1771    0.0000 C   0  0  0  0  0  0  0  0  0  0  0  0
    3.1199    3.9271    0.0000 C   0  0  0  0  0  0  0  0  0  0  0  0
    1.8209    3.1771    0.0000 C   0  0  0  0  0  0  0  0  0  0  0  0
    0.3943    3.6406    0.0000 C   0  0  0  0  0  0  0  0  0  0  0  0
   -1.0975    3.7974    0.0000 C   0  0  0  0  0  0  0  0  0  0  0  0
   -0.4874    2.4271    0.0000 C   0  0  0  0  0  0  0  0  0  0  0  0
    0.3943    1.2135    0.0000 C   0  0  0  0  0  0  0  0  0  0  0  0
    1.2760    0.0000    0.0000 C   0  0  0  0  0  0  0  0  0  0  0  0
    0.3943   -1.2135    0.0000 C   0  0  0  0  0  0  0  0  0  0  0  0
   -1.0323   -0.7500    0.0000 C   0  0  0  0  0  0  0  0  0  0  0  0
   -2.2458   -1.6317    0.0000 O   0  0  0  0  0  0  0  0  0  0  0  0
   -1.0323    0.7500    0.0000 O   0  0  0  0  0  0  0  0  0  0  0  0
    3.1199    5.4271    0.0000 C   0  0  0  0  0  0  0  0  0  0  0  0
    3.1199    6.9271    0.0000 C   0  0  0  0  0  0  0  0  0  0  0  0
    4.4190    6.1771    0.0000 C   0  0  0  0  0  0  0  0  0  0  0  0
    5.7180    5.4271    0.0000 C   0  0  0  0  0  0  0  0  0  0  0  0
    7.0170    6.1771    0.0000 C   0  0  0  0  0  0  0  0  0  0  0  0
    8.3161    5.4271    0.0000 C   0  0  0  0  0  0  0  0  0  0  0  0
    9.6151    6.1771    0.0000 O   0  0  0  0  0  0  0  0  0  0  0  0
    8.3161    3.9271    0.0000 C   0  0  0  0  0  0  0  0  0  0  0  0
    7.0170    3.1771    0.0000 C   0  0  0  0  0  0  0  0  0  0  0  0
    5.7180    3.9271    0.0000 C   0  0  0  0  0  0  0  0  0  0  0  0
    5.7180    2.4271    0.0000 C   0  0  0  0  0  0  0  0  0  0  0  0
  2  1  1  1
  2  3  1  0
  3  4  1  0
  5  4  1  1
  5  6  1  0
  6  7  1  0
  7  8  1  1
  8  9  1  1
 10  9  1  1
 10 11  1  0
 11 12  1  6
 12 13  1  0
 13 14  1  0
 14 15  2  0
 14 16  1  0
  6 17  1  6
 17 18  1  1
 19 18  1  1
 19 20  1  0
 20 21  2  0
 21 22  1  0
 22 23  2  0
 22 24  1  0
 24 25  1  0
 25 26  1  0
 26 27  1  1
  7  2  1  0
 10  8  1  0
 16 11  1  0
 19 17  1  0
 26 20  1  0
 11  2  1  0
 26  5  1  0
M  END
>  <assay_description>  (257) 
Inhibition of human BSEP overexpressed in Sf9 cell membrane vesicles assessed as uptake of [3H]-taurocholate in presence of ATP measured after 15 to 20 mins by membrane vesicle transport assay

>  <molecule_pref_name>  (257) 
DROSPIRENONE

>  <canonical_smiles>  (257) 
C[C@]12CC[C@H]3[C@H]([C@@H]1[C@@H]1C[C@@H]1[C@@]21CCC(=O)O1)[C@H]1C[C@H]1C1=CC(=O)CC[C@@]13C

>  <pchembl_value>  (257) 
4.79

>  <standard_type>  (257) 
IC50

>  <standard_relation>  (257) 
=

>  <standard_value>  (257) 
16400.0

>  <standard_units>  (257) 
nM

>  <target_pref_name>  (257) 
Bile salt export pump

>  <target_organism>  (257) 
Homo sapiens

$$$$
CHEMBL1131
     RDKit          2D

 24 24  0  0  0  0  0  0  0  0999 V2000
    3.7500   -1.2990    0.0000 C   0  0  0  0  0  0  0  0  0  0  0  0
    3.0000    0.0000    0.0000 O   0  0  0  0  0  0  0  0  0  0  0  0
    1.5000    0.0000    0.0000 C   0  0  0  0  0  0  0  0  0  0  0  0
    0.7500   -1.2990    0.0000 C   0  0  0  0  0  0  0  0  0  0  0  0
   -0.7500   -1.2990    0.0000 C   0  0  0  0  0  0  0  0  0  0  0  0
   -1.5000   -2.5981    0.0000 C   0  0  0  0  0  0  0  0  0  0  0  0
   -1.5000    0.0000    0.0000 C   0  0  0  0  0  0  0  0  0  0  0  0
   -3.0000    0.0000    0.0000 C   0  0  0  0  0  0  0  0  0  0  0  0
   -3.7500    1.2990    0.0000 C   0  0  0  0  0  0  0  0  0  0  0  0
   -5.2500    1.2990    0.0000 C   0  0  0  0  0  0  0  0  0  0  0  0
   -6.0000    0.0000    0.0000 C   0  0  0  0  0  0  0  0  0  0  0  0
   -6.0000    2.5981    0.0000 C   0  0  0  0  0  0  0  0  0  0  0  0
   -7.5000    2.5981    0.0000 C   0  0  0  0  0  0  0  0  0  0  0  0
   -8.2500    3.8971    0.0000 C   0  0  0  0  0  0  0  0  0  0  0  0
   -9.7500    3.8971    0.0000 C   0  0  0  0  0  0  0  0  0  0  0  0
  -10.5000    2.5981    0.0000 C   0  0  0  0  0  0  0  0  0  0  0  0
  -10.5000    5.1962    0.0000 C   0  0  0  0  0  0  0  0  0  0  0  0
  -12.0000    5.1962    0.0000 C   0  0  0  0  0  0  0  0  0  0  0  0
  -12.7500    3.8971    0.0000 O   0  0  0  0  0  0  0  0  0  0  0  0
  -12.7500    6.4952    0.0000 O   0  0  0  0  0  0  0  0  0  0  0  0
   -0.7500    1.2990    0.0000 C   0  0  0  0  0  0  0  0  0  0  0  0
   -1.5000    2.5981    0.0000 C   0  0  0  0  0  0  0  0  0  0  0  0
    0.7500    1.2990    0.0000 C   0  0  0  0  0  0  0  0  0  0  0  0
    1.5000    2.5981    0.0000 C   0  0  0  0  0  0  0  0  0  0  0  0
  1  2  1  0
  2  3  1  0
  3  4  2  0
  4  5  1  0
  5  6  1  0
  5  7  2  0
  7  8  1  0
  8  9  2  0
  9 10  1  0
 10 11  1  0
 10 12  2  0
 12 13  1  0
 13 14  2  0
 14 15  1  0
 15 16  1  0
 15 17  2  0
 17 18  1  0
 18 19  2  0
 18 20  1  0
  7 21  1  0
 21 22  1  0
 21 23  2  0
 23 24  1  0
 23  3  1  0
M  END
>  <assay_description>  (258) 
Inhibition of human BSEP overexpressed in Sf9 cell membrane vesicles assessed as uptake of [3H]-taurocholate in presence of ATP measured after 15 to 20 mins by membrane vesicle transport assay

>  <molecule_pref_name>  (258) 
ACITRETIN

>  <canonical_smiles>  (258) 
COc1cc(C)c(/C=C/C(C)=C/C=C/C(C)=C/C(=O)O)c(C)c1C

>  <pchembl_value>  (258) 
4.42

>  <standard_type>  (258) 
IC50

>  <standard_relation>  (258) 
=

>  <standard_value>  (258) 
38200.0

>  <standard_units>  (258) 
nM

>  <target_pref_name>  (258) 
Bile salt export pump

>  <target_organism>  (258) 
Homo sapiens

$$$$
CHEMBL1481
     RDKit          2D

 34 36  0  0  0  0  0  0  0  0999 V2000
    0.4775  -12.2701    0.0000 C   0  0  0  0  0  0  0  0  0  0  0  0
    1.8478  -11.6600    0.0000 C   0  0  0  0  0  0  0  0  0  0  0  0
    2.0046  -10.1682    0.0000 C   0  0  0  0  0  0  0  0  0  0  0  0
    3.3037   -9.4182    0.0000 C   0  0  0  0  0  0  0  0  0  0  0  0
    4.6740  -10.0283    0.0000 C   0  0  0  0  0  0  0  0  0  0  0  0
    2.9918   -7.9510    0.0000 C   0  0  0  0  0  0  0  0  0  0  0  0
    1.5000   -7.7942    0.0000 N   0  0  0  0  0  0  0  0  0  0  0  0
    0.7500   -6.4952    0.0000 C   0  0  0  0  0  0  0  0  0  0  0  0
   -0.7500   -6.4952    0.0000 O   0  0  0  0  0  0  0  0  0  0  0  0
    1.5000   -5.1962    0.0000 N   0  0  0  0  0  0  0  0  0  0  0  0
    0.7500   -3.8971    0.0000 C   0  0  0  0  0  0  0  0  0  0  0  0
    1.5000   -2.5981    0.0000 C   0  0  0  0  0  0  0  0  0  0  0  0
    0.7500   -1.2990    0.0000 C   0  0  0  0  0  0  0  0  0  0  0  0
    1.5000    0.0000    0.0000 C   0  0  0  0  0  0  0  0  0  0  0  0
    0.7500    1.2990    0.0000 C   0  0  0  0  0  0  0  0  0  0  0  0
   -0.7500    1.2990    0.0000 C   0  0  0  0  0  0  0  0  0  0  0  0
   -1.5000    2.5981    0.0000 S   0  0  0  0  0  0  0  0  0  0  0  0
   -0.2010    3.3481    0.0000 O   0  0  0  0  0  0  0  0  0  0  0  0
   -2.7990    1.8481    0.0000 O   0  0  0  0  0  0  0  0  0  0  0  0
   -2.2500    3.8971    0.0000 N   0  0  0  0  0  0  0  0  0  0  0  0
   -3.7500    3.8971    0.0000 C   0  0  0  0  0  0  0  0  0  0  0  0
   -4.5000    2.5981    0.0000 O   0  0  0  0  0  0  0  0  0  0  0  0
   -4.5000    5.1962    0.0000 N   0  0  0  0  0  0  0  0  0  0  0  0
   -6.0000    5.1962    0.0000 C   0  0  0  0  0  0  0  0  0  0  0  0
   -6.7500    6.4952    0.0000 C   0  0  0  0  0  0  0  0  0  0  0  0
   -8.2500    6.4952    0.0000 C   0  0  0  0  0  0  0  0  0  0  0  0
   -9.0000    5.1962    0.0000 C   0  0  0  0  0  0  0  0  0  0  0  0
  -10.5000    5.1962    0.0000 C   0  0  0  0  0  0  0  0  0  0  0  0
   -8.2500    3.8971    0.0000 C   0  0  0  0  0  0  0  0  0  0  0  0
   -6.7500    3.8971    0.0000 C   0  0  0  0  0  0  0  0  0  0  0  0
   -1.5000    0.0000    0.0000 C   0  0  0  0  0  0  0  0  0  0  0  0
   -0.7500   -1.2990    0.0000 C   0  0  0  0  0  0  0  0  0  0  0  0
    0.8899   -9.1645    0.0000 C   0  0  0  0  0  0  0  0  0  0  0  0
   -0.5773   -9.4764    0.0000 O   0  0  0  0  0  0  0  0  0  0  0  0
  1  2  1  0
  2  3  1  0
  3  4  2  0
  4  5  1  0
  4  6  1  0
  6  7  1  0
  7  8  1  0
  8  9  2  0
  8 10  1  0
 10 11  1  0
 11 12  1  0
 12 13  1  0
 13 14  2  0
 14 15  1  0
 15 16  2  0
 16 17  1  0
 17 18  2  0
 17 19  2  0
 17 20  1  0
 20 21  1  0
 21 22  2  0
 21 23  1  0
 24 23  1  6
 24 25  1  0
 25 26  1  0
 26 27  1  0
 27 28  1  1
 27 29  1  0
 29 30  1  0
 16 31  1  0
 31 32  2  0
  7 33  1  0
 33 34  2  0
 33  3  1  0
 32 13  1  0
 30 24  1  0
M  END
>  <assay_description>  (259) 
Inhibition of human BSEP overexpressed in Sf9 cell membrane vesicles assessed as uptake of [3H]-taurocholate in presence of ATP measured after 15 to 20 mins by membrane vesicle transport assay

>  <molecule_pref_name>  (259) 
GLIMEPIRIDE

>  <canonical_smiles>  (259) 
CCC1=C(C)CN(C(=O)NCCc2ccc(S(=O)(=O)NC(=O)N[C@H]3CC[C@H](C)CC3)cc2)C1=O

>  <pchembl_value>  (259) 
4.80

>  <standard_type>  (259) 
IC50

>  <standard_relation>  (259) 
=

>  <standard_value>  (259) 
15700.0

>  <standard_units>  (259) 
nM

>  <target_pref_name>  (259) 
Bile salt export pump

>  <target_organism>  (259) 
Homo sapiens

$$$$
CHEMBL2103735
     RDKit          2D

106110  0  0  0  0  0  0  0  0999 V2000
   -6.0000   -2.5981    0.0000 C   0  0  0  0  0  0  0  0  0  0  0  0
   -5.2500   -3.8971    0.0000 C   0  0  0  0  0  0  0  0  0  0  0  0
   -6.0000   -5.1962    0.0000 O   0  0  0  0  0  0  0  0  0  0  0  0
   -3.7500   -3.8971    0.0000 N   0  0  0  0  0  0  0  0  0  0  0  0
   -3.0000   -5.1962    0.0000 C   0  0  0  0  0  0  0  0  0  0  0  0
   -1.5000   -5.1962    0.0000 C   0  0  0  0  0  0  0  0  0  0  0  0
   -0.7500   -3.8971    0.0000 C   0  0  0  0  0  0  0  0  0  0  0  0
    0.7500   -3.8971    0.0000 C   0  0  0  0  0  0  0  0  0  0  0  0
    1.5000   -2.5981    0.0000 C   0  0  0  0  0  0  0  0  0  0  0  0
    0.7500   -1.2990    0.0000 C   0  0  0  0  0  0  0  0  0  0  0  0
    1.5000    0.0000    0.0000 C   0  0  0  0  0  0  0  0  0  0  0  0
    0.7500    1.2990    0.0000 C   0  0  0  0  0  0  0  0  0  0  0  0
   -0.7500    1.2990    0.0000 C   0  0  0  0  0  0  0  0  0  0  0  0
   -1.5000    0.0000    0.0000 C   0  0  0  0  0  0  0  0  0  0  0  0
   -0.7500   -1.2990    0.0000 C   0  0  0  0  0  0  0  0  0  0  0  0
   -1.5000   -2.5981    0.0000 C   0  0  0  0  0  0  0  0  0  0  0  0
   -3.7500   -6.4952    0.0000 C   0  0  0  0  0  0  0  0  0  0  0  0
   -3.0000   -7.7942    0.0000 O   0  0  0  0  0  0  0  0  0  0  0  0
   -5.2500   -6.4952    0.0000 N   0  0  0  0  0  0  0  0  0  0  0  0
   -6.0000   -7.7942    0.0000 C   0  0  0  0  0  0  0  0  0  0  0  0
   -7.5000   -7.7942    0.0000 C   0  0  0  0  0  0  0  0  0  0  0  0
   -8.2500   -9.0933    0.0000 C   0  0  0  0  0  0  0  0  0  0  0  0
   -9.7500   -9.0933    0.0000 C   0  0  0  0  0  0  0  0  0  0  0  0
  -10.5000  -10.3923    0.0000 C   0  0  0  0  0  0  0  0  0  0  0  0
   -9.7500  -11.6913    0.0000 C   0  0  0  0  0  0  0  0  0  0  0  0
  -10.5000  -12.9904    0.0000 Cl  0  0  0  0  0  0  0  0  0  0  0  0
   -8.2500  -11.6913    0.0000 C   0  0  0  0  0  0  0  0  0  0  0  0
   -7.5000  -10.3923    0.0000 C   0  0  0  0  0  0  0  0  0  0  0  0
   -5.2500   -9.0933    0.0000 C   0  0  0  0  0  0  0  0  0  0  0  0
   -3.7500   -9.0933    0.0000 O   0  0  0  0  0  0  0  0  0  0  0  0
   -6.0000  -10.3923    0.0000 N   0  0  0  0  0  0  0  0  0  0  0  0
   -5.2500  -11.6913    0.0000 C   0  0  0  0  0  0  0  0  0  0  0  0
   -6.0000  -12.9904    0.0000 C   0  0  0  0  0  0  0  0  0  0  0  0
   -5.2500  -14.2894    0.0000 C   0  0  0  0  0  0  0  0  0  0  0  0
   -6.0000  -15.5885    0.0000 C   0  0  0  0  0  0  0  0  0  0  0  0
   -5.2500  -16.8875    0.0000 C   0  0  0  0  0  0  0  0  0  0  0  0
   -3.7500  -16.8875    0.0000 C   0  0  0  0  0  0  0  0  0  0  0  0
   -3.0000  -15.5885    0.0000 N   0  0  0  0  0  0  0  0  0  0  0  0
   -3.7500  -14.2894    0.0000 C   0  0  0  0  0  0  0  0  0  0  0  0
   -3.7500  -11.6913    0.0000 C   0  0  0  0  0  0  0  0  0  0  0  0
   -3.0000  -10.3923    0.0000 O   0  0  0  0  0  0  0  0  0  0  0  0
   -3.0000  -12.9904    0.0000 N   0  0  0  0  0  0  0  0  0  0  0  0
   -1.5000  -12.9904    0.0000 C   0  0  0  0  0  0  0  0  0  0  0  0
   -0.7500  -14.2894    0.0000 C   0  0  0  0  0  0  0  0  0  0  0  0
    0.7500  -14.2894    0.0000 O   0  0  0  0  0  0  0  0  0  0  0  0
   -0.7500  -11.6913    0.0000 C   0  0  0  0  0  0  0  0  0  0  0  0
   -1.6528  -10.4934    0.0000 O   0  0  0  0  0  0  0  0  0  0  0  0
    0.7500  -11.6913    0.0000 N   0  0  0  0  0  0  0  0  0  0  0  0
    1.5000  -10.3923    0.0000 C   0  0  0  0  0  0  0  0  0  0  0  0
    3.0000  -10.3923    0.0000 C   0  0  0  0  0  0  0  0  0  0  0  0
    3.7500  -11.6913    0.0000 C   0  0  0  0  0  0  0  0  0  0  0  0
    5.2500  -11.6913    0.0000 C   0  0  0  0  0  0  0  0  0  0  0  0
    6.0000  -12.9904    0.0000 C   0  0  0  0  0  0  0  0  0  0  0  0
    5.2500  -14.2894    0.0000 C   0  0  0  0  0  0  0  0  0  0  0  0
    6.0000  -15.5885    0.0000 O   0  0  0  0  0  0  0  0  0  0  0  0
    3.7500  -14.2894    0.0000 C   0  0  0  0  0  0  0  0  0  0  0  0
    3.0000  -12.9904    0.0000 C   0  0  0  0  0  0  0  0  0  0  0  0
    0.7500   -9.0933    0.0000 C   0  0  0  0  0  0  0  0  0  0  0  0
   -0.7500   -9.0933    0.0000 O   0  0  0  0  0  0  0  0  0  0  0  0
    1.5000   -7.7942    0.0000 N   0  0  0  0  0  0  0  0  0  0  0  0
    3.0000   -7.7942    0.0000 C   0  0  0  0  0  0  0  0  0  0  0  0
    3.7500   -9.0933    0.0000 C   0  0  0  0  0  0  0  0  0  0  0  0
    3.0000  -10.3923    0.0000 C   0  0  0  0  0  0  0  0  0  0  0  0
    1.5000  -10.3923    0.0000 C   0  0  0  0  0  0  0  0  0  0  0  0
    0.7500  -11.6913    0.0000 N   0  0  0  0  0  0  0  0  0  0  0  0
   -0.7500  -11.6913    0.0000 C   0  0  0  0  0  0  0  0  0  0  0  0
   -1.7920  -12.7703    0.0000 N   0  0  0  0  0  0  0  0  0  0  0  0
   -1.3361  -10.3106    0.0000 O   0  0  0  0  0  0  0  0  0  0  0  0
    3.7500   -6.4952    0.0000 C   0  0  0  0  0  0  0  0  0  0  0  0
    5.2500   -6.4952    0.0000 O   0  0  0  0  0  0  0  0  0  0  0  0
    3.0000   -5.1962    0.0000 N   0  0  0  0  0  0  0  0  0  0  0  0
    3.7500   -3.8971    0.0000 C   0  0  0  0  0  0  0  0  0  0  0  0
    3.0000   -2.5981    0.0000 C   0  0  0  0  0  0  0  0  0  0  0  0
    3.7500   -1.2990    0.0000 C   0  0  0  0  0  0  0  0  0  0  0  0
    3.0000   -0.0000    0.0000 C   0  0  0  0  0  0  0  0  0  0  0  0
    5.2500   -1.2990    0.0000 C   0  0  0  0  0  0  0  0  0  0  0  0
    5.2500   -3.8971    0.0000 C   0  0  0  0  0  0  0  0  0  0  0  0
    6.0000   -2.5981    0.0000 O   0  0  0  0  0  0  0  0  0  0  0  0
    6.0000   -5.1962    0.0000 N   0  0  0  0  0  0  0  0  0  0  0  0
    7.5000   -5.1962    0.0000 C   0  0  0  0  0  0  0  0  0  0  0  0
    8.2500   -6.4952    0.0000 C   0  0  0  0  0  0  0  0  0  0  0  0
    9.7500   -6.4952    0.0000 C   0  0  0  0  0  0  0  0  0  0  0  0
   10.5000   -7.7942    0.0000 C   0  0  0  0  0  0  0  0  0  0  0  0
   12.0000   -7.7942    0.0000 N   0  0  0  0  0  0  0  0  0  0  0  0
   12.7500   -9.0933    0.0000 C   0  0  0  0  0  0  0  0  0  0  0  0
   12.1639  -10.4740    0.0000 N   0  0  0  0  0  0  0  0  0  0  0  0
   14.2500   -9.0933    0.0000 N   0  0  0  0  0  0  0  0  0  0  0  0
    8.2500   -3.8971    0.0000 C   0  0  0  0  0  0  0  0  0  0  0  0
    7.5000   -2.5981    0.0000 O   0  0  0  0  0  0  0  0  0  0  0  0
    9.7500   -3.8971    0.0000 N   0  0  0  0  0  0  0  0  0  0  0  0
   10.6317   -2.6836    0.0000 C   0  0  0  0  0  0  0  0  0  0  0  0
   12.0583   -3.1471    0.0000 C   0  0  0  0  0  0  0  0  0  0  0  0
   12.0583   -4.6471    0.0000 C   0  0  0  0  0  0  0  0  0  0  0  0
   10.6317   -5.1106    0.0000 C   0  0  0  0  0  0  0  0  0  0  0  0
   10.1682   -6.5372    0.0000 C   0  0  0  0  0  0  0  0  0  0  0  0
    8.8200   -7.1949    0.0000 O   0  0  0  0  0  0  0  0  0  0  0  0
   11.1718   -7.6519    0.0000 N   0  0  0  0  0  0  0  0  0  0  0  0
   10.7083   -9.0785    0.0000 C   0  0  0  0  0  0  0  0  0  0  0  0
   11.5687  -10.3073    0.0000 C   0  0  0  0  0  0  0  0  0  0  0  0
    9.2411   -9.3904    0.0000 C   0  0  0  0  0  0  0  0  0  0  0  0
    8.2374   -8.2757    0.0000 N   0  0  0  0  0  0  0  0  0  0  0  0
    8.7776  -10.8170    0.0000 O   0  0  0  0  0  0  0  0  0  0  0  0
    0.0000    2.2990    0.0000 C   0  0  0  0  0  0  0  0  0  0  0  0
    1.2990    3.0490    0.0000 C   0  0  0  0  0  0  0  0  0  0  0  0
    1.2990    4.5490    0.0000 O   0  0  0  0  0  0  0  0  0  0  0  0
    2.5981    2.2990    0.0000 O   0  0  0  0  0  0  0  0  0  0  0  0
  1  2  1  0
  2  3  2  0
  2  4  1  0
  4  5  1  0
  5  6  1  6
  6  7  1  0
  7  8  2  0
  8  9  1  0
  9 10  2  0
 10 11  1  0
 11 12  2  0
 12 13  1  0
 13 14  2  0
 14 15  1  0
 15 16  2  0
  5 17  1  0
 17 18  2  0
 17 19  1  0
 19 20  1  0
 20 21  1  1
 21 22  1  0
 22 23  2  0
 23 24  1  0
 24 25  2  0
 25 26  1  0
 25 27  1  0
 27 28  2  0
 20 29  1  0
 29 30  2  0
 29 31  1  0
 31 32  1  0
 32 33  1  1
 33 34  1  0
 34 35  2  0
 35 36  1  0
 36 37  2  0
 37 38  1  0
 38 39  2  0
 32 40  1  0
 40 41  2  0
 40 42  1  0
 42 43  1  0
 43 44  1  6
 44 45  1  0
 43 46  1  0
 46 47  2  0
 46 48  1  0
 48 49  1  0
 49 50  1  6
 50 51  1  0
 51 52  2  0
 52 53  1  0
 53 54  2  0
 54 55  1  0
 54 56  1  0
 56 57  2  0
 49 58  1  0
 58 59  2  0
 58 60  1  0
 60 61  1  0
 61 62  1  1
 62 63  1  0
 63 64  1  0
 64 65  1  0
 65 66  1  0
 66 67  1  0
 66 68  2  0
 61 69  1  0
 69 70  2  0
 69 71  1  0
 71 72  1  0
 72 73  1  1
 73 74  1  0
 74 75  1  0
 74 76  1  0
 72 77  1  0
 77 78  2  0
 77 79  1  0
 79 80  1  0
 80 81  1  6
 81 82  1  0
 82 83  1  0
 83 84  1  0
 84 85  1  0
 85 86  2  0
 85 87  1  0
 80 88  1  0
 88 89  2  0
 88 90  1  0
 90 91  1  0
 91 92  1  0
 92 93  1  0
 93 94  1  0
 94 95  1  1
 95 96  2  0
 95 97  1  0
 97 98  1  0
 98 99  1  6
 98100  1  0
100101  1  0
100102  2  0
103104  1  0
104105  2  0
104106  1  0
 16  7  1  0
 28 22  1  0
 39 34  1  0
 57 51  1  0
 94 90  1  0
 15 10  1  0
M  END
>  <assay_description>  (260) 
Inhibition of human BSEP overexpressed in Sf9 cell membrane vesicles assessed as uptake of [3H]-taurocholate in presence of ATP measured after 15 to 20 mins by membrane vesicle transport assay

>  <molecule_pref_name>  (260) 
CETRORELIX ACETATE

>  <canonical_smiles>  (260) 
CC(=O)N[C@H](Cc1ccc2ccccc2c1)C(=O)N[C@H](Cc1ccc(Cl)cc1)C(=O)N[C@H](Cc1cccnc1)C(=O)N[C@@H](CO)C(=O)N[C@@H](Cc1ccc(O)cc1)C(=O)N[C@H](CCCNC(N)=O)C(=O)N[C@@H](CC(C)C)C(=O)N[C@@H](CCCNC(=N)N)C(=O)N1CCC[C@H]1C(=O)N[C@H](C)C(N)=O.CC(=O)O

>  <pchembl_value>  (260) 
5.83

>  <standard_type>  (260) 
IC50

>  <standard_relation>  (260) 
=

>  <standard_value>  (260) 
1470.0

>  <standard_units>  (260) 
nM

>  <target_pref_name>  (260) 
Bile salt export pump

>  <target_organism>  (260) 
Homo sapiens

$$$$
CHEMBL1908360
     RDKit          2D

 68 71  0  0  0  0  0  0  0  0999 V2000
    9.2437   -7.3954    0.0000 C   0  0  0  0  0  0  0  0  0  0  0  0
    8.4244   -8.6519    0.0000 O   0  0  0  0  0  0  0  0  0  0  0  0
    6.9266   -8.5707    0.0000 C   0  0  0  0  0  0  0  0  0  0  0  0
    6.8454   -7.0729    0.0000 C   0  0  0  0  0  0  0  0  0  0  0  0
    6.4441   -5.6276    0.0000 C   0  0  0  0  0  0  0  0  0  0  0  0
    7.4700   -4.4677    0.0000 C   0  0  0  0  0  0  0  0  0  0  0  0
    7.3617   -2.9716    0.0000 C   0  0  0  0  0  0  0  0  0  0  0  0
    6.0120   -2.3173    0.0000 C   0  0  0  0  0  0  0  0  0  0  0  0
    5.9037   -0.8212    0.0000 C   0  0  0  0  0  0  0  0  0  0  0  0
    4.7704   -3.1591    0.0000 C   0  0  0  0  0  0  0  0  0  0  0  0
    5.2059   -2.3878    0.0000 O   0  0  0  0  0  0  0  0  0  0  0  0
    5.7415   -4.3023    0.0000 O   0  0  0  0  0  0  0  0  0  0  0  0
    3.5763   -2.2513    0.0000 C   0  0  0  0  0  0  0  0  0  0  0  0
    4.3496   -0.9660    0.0000 O   0  0  0  0  0  0  0  0  0  0  0  0
    2.2149   -1.6215    0.0000 C   0  0  0  0  0  0  0  0  0  0  0  0
    2.6939   -0.2000    0.0000 O   0  0  0  0  0  0  0  0  0  0  0  0
    0.7500   -1.2990    0.0000 N   0  0  0  0  0  0  0  0  0  0  0  0
    1.5000    0.0000    0.0000 C   0  0  0  0  0  0  0  0  0  0  0  0
    0.7500    1.2990    0.0000 C   0  0  0  0  0  0  0  0  0  0  0  0
   -0.7500    1.2990    0.0000 C   0  0  0  0  0  0  0  0  0  0  0  0
   -1.5000    0.0000    0.0000 C   0  0  0  0  0  0  0  0  0  0  0  0
   -0.7500   -1.2990    0.0000 C   0  0  0  0  0  0  0  0  0  0  0  0
   -2.2149   -1.6215    0.0000 C   0  0  0  0  0  0  0  0  0  0  0  0
   -2.6939   -0.2000    0.0000 O   0  0  0  0  0  0  0  0  0  0  0  0
   -3.5763   -2.2513    0.0000 O   0  0  0  0  0  0  0  0  0  0  0  0
   -4.7704   -3.1591    0.0000 C   0  0  0  0  0  0  0  0  0  0  0  0
   -5.8020   -2.0701    0.0000 C   0  0  0  0  0  0  0  0  0  0  0  0
   -5.3747   -0.6323    0.0000 C   0  0  0  0  0  0  0  0  0  0  0  0
   -7.2609   -2.4189    0.0000 C   0  0  0  0  0  0  0  0  0  0  0  0
   -8.2924   -1.3300    0.0000 C   0  0  0  0  0  0  0  0  0  0  0  0
   -7.8651    0.1079    0.0000 C   0  0  0  0  0  0  0  0  0  0  0  0
   -8.8966    1.1969    0.0000 C   0  0  0  0  0  0  0  0  0  0  0  0
  -10.3555    0.8480    0.0000 C   0  0  0  0  0  0  0  0  0  0  0  0
  -11.3870    1.9370    0.0000 O   0  0  0  0  0  0  0  0  0  0  0  0
  -10.9597    3.3749    0.0000 C   0  0  0  0  0  0  0  0  0  0  0  0
  -11.9913    4.4639    0.0000 C   0  0  0  0  0  0  0  0  0  0  0  0
  -11.5640    5.9017    0.0000 O   0  0  0  0  0  0  0  0  0  0  0  0
  -10.7828   -0.5898    0.0000 C   0  0  0  0  0  0  0  0  0  0  0  0
  -12.2417   -0.9387    0.0000 O   0  0  0  0  0  0  0  0  0  0  0  0
  -12.6690   -2.3765    0.0000 C   0  0  0  0  0  0  0  0  0  0  0  0
   -9.7513   -1.6788    0.0000 C   0  0  0  0  0  0  0  0  0  0  0  0
   -5.7415   -4.3023    0.0000 C   0  0  0  0  0  0  0  0  0  0  0  0
   -6.4441   -5.6276    0.0000 C   0  0  0  0  0  0  0  0  0  0  0  0
   -7.8376   -5.0724    0.0000 O   0  0  0  0  0  0  0  0  0  0  0  0
   -6.8454   -7.0729    0.0000 C   0  0  0  0  0  0  0  0  0  0  0  0
   -8.3257   -6.8303    0.0000 C   0  0  0  0  0  0  0  0  0  0  0  0
   -6.9266   -8.5707    0.0000 C   0  0  0  0  0  0  0  0  0  0  0  0
   -6.6840  -10.0510    0.0000 C   0  0  0  0  0  0  0  0  0  0  0  0
   -8.1293  -10.4523    0.0000 C   0  0  0  0  0  0  0  0  0  0  0  0
   -6.1287  -11.4444    0.0000 C   0  0  0  0  0  0  0  0  0  0  0  0
   -7.4540  -12.1470    0.0000 O   0  0  0  0  0  0  0  0  0  0  0  0
   -5.2870  -12.6860    0.0000 C   0  0  0  0  0  0  0  0  0  0  0  0
   -6.4302  -13.6570    0.0000 O   0  0  0  0  0  0  0  0  0  0  0  0
   -6.1609  -15.1327    0.0000 C   0  0  0  0  0  0  0  0  0  0  0  0
   -4.1980  -13.7175    0.0000 C   0  0  0  0  0  0  0  0  0  0  0  0
   -5.1057  -14.9117    0.0000 O   0  0  0  0  0  0  0  0  0  0  0  0
   -2.9127  -14.4908    0.0000 C   0  0  0  0  0  0  0  0  0  0  0  0
   -3.5425  -15.8522    0.0000 C   0  0  0  0  0  0  0  0  0  0  0  0
   -1.4912  -14.9698    0.0000 C   0  0  0  0  0  0  0  0  0  0  0  0
    0.0000  -15.1320    0.0000 C   0  0  0  0  0  0  0  0  0  0  0  0
    0.0000  -16.6320    0.0000 C   0  0  0  0  0  0  0  0  0  0  0  0
    1.4912  -14.9698    0.0000 C   0  0  0  0  0  0  0  0  0  0  0  0
    2.9127  -14.4908    0.0000 C   0  0  0  0  0  0  0  0  0  0  0  0
    4.1980  -13.7175    0.0000 C   0  0  0  0  0  0  0  0  0  0  0  0
    5.2870  -12.6860    0.0000 C   0  0  0  0  0  0  0  0  0  0  0  0
    6.1287  -11.4444    0.0000 C   0  0  0  0  0  0  0  0  0  0  0  0
    6.6840  -10.0510    0.0000 C   0  0  0  0  0  0  0  0  0  0  0  0
    8.1293  -10.4523    0.0000 C   0  0  0  0  0  0  0  0  0  0  0  0
  1  2  1  0
  3  2  1  6
  3  4  1  0
  5  4  1  1
  5  6  1  0
  6  7  1  0
  7  8  1  0
  8  9  1  6
  8 10  1  0
 10 11  1  6
 10 12  1  0
 10 13  1  0
 13 14  2  0
 13 15  1  0
 15 16  2  0
 15 17  1  0
 17 18  1  0
 18 19  1  0
 19 20  1  0
 20 21  1  0
 22 21  1  6
 22 23  1  0
 23 24  2  0
 23 25  1  0
 25 26  1  0
 26 27  1  0
 27 28  1  1
 27 29  1  0
 30 29  1  1
 30 31  1  0
 31 32  1  0
 32 33  1  0
 33 34  1  6
 34 35  1  0
 35 36  1  0
 36 37  1  0
 33 38  1  0
 38 39  1  1
 39 40  1  0
 38 41  1  0
 26 42  1  1
 42 43  1  0
 43 44  2  0
 43 45  1  0
 45 46  1  1
 45 47  1  0
 47 48  2  0
 48 49  1  0
 48 50  1  0
 50 51  1  6
 50 52  1  0
 52 53  1  6
 53 54  1  0
 52 55  1  0
 55 56  2  0
 55 57  1  0
 57 58  1  1
 57 59  1  0
 59 60  1  0
 60 61  1  1
 60 62  1  0
 62 63  2  0
 63 64  1  0
 64 65  2  0
 65 66  1  0
 66 67  2  0
 67 68  1  0
 67  3  1  0
 12  5  1  0
 22 17  1  0
 41 30  1  0
M  END
>  <assay_description>  (261) 
Inhibition of human BSEP overexpressed in Sf9 cell membrane vesicles assessed as uptake of [3H]-taurocholate in presence of ATP measured after 15 to 20 mins by membrane vesicle transport assay

>  <molecule_pref_name>  (261) 
EVEROLIMUS

>  <canonical_smiles>  (261) 
CO[C@H]1C[C@@H]2CC[C@@H](C)[C@@](O)(O2)C(=O)C(=O)N2CCCC[C@H]2C(=O)O[C@H]([C@H](C)C[C@@H]2CC[C@@H](OCCO)[C@H](OC)C2)CC(=O)[C@H](C)/C=C(\C)[C@@H](O)[C@@H](OC)C(=O)[C@H](C)C[C@H](C)/C=C/C=C/C=C/1C

>  <pchembl_value>  (261) 
5.70

>  <standard_type>  (261) 
IC50

>  <standard_relation>  (261) 
=

>  <standard_value>  (261) 
2000.0

>  <standard_units>  (261) 
nM

>  <target_pref_name>  (261) 
Bile salt export pump

>  <target_organism>  (261) 
Homo sapiens

$$$$
CHEMBL995
     RDKit          2D

 31 33  0  0  0  0  0  0  0  0999 V2000
   -5.6836   -2.4482    0.0000 C   0  0  0  0  0  0  0  0  0  0  0  0
   -4.2164   -2.1363    0.0000 C   0  0  0  0  0  0  0  0  0  0  0  0
   -3.2127   -3.2511    0.0000 C   0  0  0  0  0  0  0  0  0  0  0  0
   -1.7455   -2.9392    0.0000 C   0  0  0  0  0  0  0  0  0  0  0  0
   -0.7418   -4.0539    0.0000 C   0  0  0  0  0  0  0  0  0  0  0  0
   -1.0537   -5.5211    0.0000 N   0  0  0  0  0  0  0  0  0  0  0  0
    0.2454   -6.2711    0.0000 C   0  0  0  0  0  0  0  0  0  0  0  0
    0.4022   -7.7629    0.0000 Cl  0  0  0  0  0  0  0  0  0  0  0  0
    1.3601   -5.2674    0.0000 C   0  0  0  0  0  0  0  0  0  0  0  0
    2.8273   -5.5793    0.0000 C   0  0  0  0  0  0  0  0  0  0  0  0
    3.2909   -7.0059    0.0000 O   0  0  0  0  0  0  0  0  0  0  0  0
    0.7500   -3.8971    0.0000 N   0  0  0  0  0  0  0  0  0  0  0  0
    1.5000   -2.5981    0.0000 C   0  0  0  0  0  0  0  0  0  0  0  0
    0.7500   -1.2990    0.0000 C   0  0  0  0  0  0  0  0  0  0  0  0
    1.5000    0.0000    0.0000 C   0  0  0  0  0  0  0  0  0  0  0  0
    0.7500    1.2990    0.0000 C   0  0  0  0  0  0  0  0  0  0  0  0
   -0.7500    1.2990    0.0000 C   0  0  0  0  0  0  0  0  0  0  0  0
   -1.5000    2.5981    0.0000 C   0  0  0  0  0  0  0  0  0  0  0  0
   -0.7500    3.8971    0.0000 C   0  0  0  0  0  0  0  0  0  0  0  0
   -1.5000    5.1962    0.0000 C   0  0  0  0  0  0  0  0  0  0  0  0
   -3.0000    5.1962    0.0000 C   0  0  0  0  0  0  0  0  0  0  0  0
   -3.7500    3.8971    0.0000 C   0  0  0  0  0  0  0  0  0  0  0  0
   -3.0000    2.5981    0.0000 C   0  0  0  0  0  0  0  0  0  0  0  0
   -3.7500    1.2990    0.0000 C   0  0  0  0  0  0  0  0  0  0  0  0
   -3.1399   -0.0713    0.0000 N   0  0  0  0  0  0  0  0  0  0  0  0
   -4.2546   -1.0750    0.0000 N   0  0  0  0  0  0  0  0  0  0  0  0
   -5.5537   -0.3250    0.0000 N   0  0  0  0  0  2  0  0  0  0  0  0
   -5.2418    1.1422    0.0000 N   0  0  0  0  0  0  0  0  0  0  0  0
   -1.5000    0.0000    0.0000 C   0  0  0  0  0  0  0  0  0  0  0  0
   -0.7500   -1.2990    0.0000 C   0  0  0  0  0  0  0  0  0  0  0  0
    4.2909    0.0000    0.0000 K   0  0  0  0  0 15  0  0  0  0  0  0
  1  2  1  0
  2  3  1  0
  3  4  1  0
  4  5  1  0
  5  6  2  0
  6  7  1  0
  7  8  1  0
  7  9  2  0
  9 10  1  0
 10 11  1  0
  9 12  1  0
 12 13  1  0
 13 14  1  0
 14 15  2  0
 15 16  1  0
 16 17  2  0
 17 18  1  0
 18 19  2  0
 19 20  1  0
 20 21  2  0
 21 22  1  0
 22 23  2  0
 23 24  1  0
 24 25  1  0
 25 26  2  0
 26 27  1  0
 27 28  1  0
 17 29  1  0
 29 30  2  0
 12  5  1  0
 30 14  1  0
 23 18  1  0
 28 24  2  0
M  CHG  2  27  -1  31   1
M  END
>  <assay_description>  (262) 
Inhibition of human BSEP overexpressed in Sf9 cell membrane vesicles assessed as uptake of [3H]-taurocholate in presence of ATP measured after 15 to 20 mins by membrane vesicle transport assay

>  <molecule_pref_name>  (262) 
LOSARTAN POTASSIUM

>  <canonical_smiles>  (262) 
CCCCc1nc(Cl)c(CO)n1Cc1ccc(-c2ccccc2-c2nn[n-]n2)cc1.[K+]

>  <pchembl_value>  (262) 
5.07

>  <standard_type>  (262) 
IC50

>  <standard_relation>  (262) 
=

>  <standard_value>  (262) 
8530.0

>  <standard_units>  (262) 
nM

>  <target_pref_name>  (262) 
Bile salt export pump

>  <target_organism>  (262) 
Homo sapiens

$$$$
CHEMBL1256688
     RDKit          2D

 37 39  0  0  0  0  0  0  0  0999 V2000
   -5.4996   -8.3906    0.0000 C   0  0  0  0  0  0  0  0  0  0  0  0
   -4.0900   -7.8776    0.0000 O   0  0  0  0  0  0  0  0  0  0  0  0
   -3.8296   -6.4004    0.0000 C   0  0  0  0  0  0  0  0  0  0  0  0
   -2.4200   -5.8874    0.0000 C   0  0  0  0  0  0  0  0  0  0  0  0
   -1.2709   -6.8515    0.0000 O   0  0  0  0  0  0  0  0  0  0  0  0
   -2.1595   -4.4101    0.0000 O   0  0  0  0  0  0  0  0  0  0  0  0
   -0.7500   -3.8971    0.0000 C   0  0  0  0  0  0  0  0  0  0  0  0
   -0.4895   -5.3743    0.0000 C   0  0  0  0  0  0  0  0  0  0  0  0
    0.9200   -5.8874    0.0000 C   0  0  0  0  0  0  0  0  0  0  0  0
    1.1805   -7.3646    0.0000 N   0  0  0  0  0  0  0  0  0  0  0  0
    2.5900   -7.8776    0.0000 C   0  0  0  0  0  0  0  0  0  0  0  0
    0.0314   -8.3287    0.0000 C   0  0  0  0  0  0  0  0  0  0  0  0
    0.2919   -9.8060    0.0000 C   0  0  0  0  0  0  0  0  0  0  0  0
   -0.8572  -10.7701    0.0000 C   0  0  0  0  0  0  0  0  0  0  0  0
   -0.5967  -12.2474    0.0000 C   0  0  0  0  0  0  0  0  0  0  0  0
    0.7515  -12.9049    0.0000 N   0  0  0  0  0  0  0  0  0  0  0  0
    0.5427  -14.3903    0.0000 C   0  0  0  0  0  0  0  0  0  0  0  0
    1.5069  -15.5394    0.0000 C   0  0  0  0  0  0  0  0  0  0  0  0
    0.9939  -16.9489    0.0000 C   0  0  0  0  0  0  0  0  0  0  0  0
   -0.4833  -17.2094    0.0000 C   0  0  0  0  0  0  0  0  0  0  0  0
   -1.4475  -16.0603    0.0000 C   0  0  0  0  0  0  0  0  0  0  0  0
   -0.9345  -14.6508    0.0000 C   0  0  0  0  0  0  0  0  0  0  0  0
   -1.6387  -13.3264    0.0000 N   0  0  0  0  0  0  0  0  0  0  0  0
    0.7500   -3.8971    0.0000 C   0  0  0  0  0  0  0  0  0  0  0  0
    1.5000   -2.5981    0.0000 C   0  0  0  0  0  0  0  0  0  0  0  0
    0.7500   -1.2990    0.0000 C   0  0  0  0  0  0  0  0  0  0  0  0
    1.5000    0.0000    0.0000 C   0  0  0  0  0  0  0  0  0  0  0  0
    0.7500    1.2990    0.0000 C   0  0  0  0  0  0  0  0  0  0  0  0
    1.5000    2.5981    0.0000 F   0  0  0  0  0  0  0  0  0  0  0  0
   -0.7500    1.2990    0.0000 C   0  0  0  0  0  0  0  0  0  0  0  0
   -1.5000    0.0000    0.0000 C   0  0  0  0  0  0  0  0  0  0  0  0
   -0.7500   -1.2990    0.0000 C   0  0  0  0  0  0  0  0  0  0  0  0
   -1.5000   -2.5981    0.0000 C   0  0  0  0  0  0  0  0  0  0  0  0
   -3.0000   -2.5981    0.0000 C   0  0  0  0  0  0  0  0  0  0  0  0
   -3.7500   -3.8971    0.0000 C   0  0  0  0  0  0  0  0  0  0  0  0
   -3.7500   -1.2990    0.0000 C   0  0  0  0  0  0  0  0  0  0  0  0
    3.5900    0.0000    0.0000 Cl  0  0  0  0  0  0  0  0  0  0  0  0
  1  2  1  0
  2  3  1  0
  3  4  1  0
  4  5  2  0
  4  6  1  0
  6  7  1  0
  7  8  1  6
  8  9  1  0
  9 10  1  0
 10 11  1  0
 10 12  1  0
 12 13  1  0
 13 14  1  0
 14 15  1  0
 15 16  2  0
 16 17  1  0
 17 18  2  0
 18 19  1  0
 19 20  2  0
 20 21  1  0
 21 22  2  0
 22 23  1  0
  7 24  1  0
 24 25  1  0
 25 26  1  0
 26 27  2  0
 27 28  1  0
 28 29  1  0
 28 30  2  0
 30 31  1  0
 31 32  2  0
 32 33  1  0
 33 34  1  1
 34 35  1  0
 34 36  1  0
 33  7  1  0
 23 15  1  0
 32 26  1  0
 22 17  1  0
M  END
>  <assay_description>  (263) 
Inhibition of human BSEP overexpressed in Sf9 cell membrane vesicles assessed as uptake of [3H]-taurocholate in presence of ATP measured after 15 to 20 mins by membrane vesicle transport assay

>  <molecule_pref_name>  (263) 
None

>  <canonical_smiles>  (263) 
COCC(=O)O[C@]1(CCN(C)CCCc2nc3ccccc3[nH]2)CCc2cc(F)ccc2[C@@H]1C(C)C.Cl

>  <pchembl_value>  (263) 
4.36

>  <standard_type>  (263) 
IC50

>  <standard_relation>  (263) 
=

>  <standard_value>  (263) 
43800.0

>  <standard_units>  (263) 
nM

>  <target_pref_name>  (263) 
Bile salt export pump

>  <target_organism>  (263) 
Homo sapiens

$$$$
CHEMBL64391
     RDKit          2D

 49 55  0  0  0  0  0  0  0  0999 V2000
    2.9046   -8.8373    0.0000 C   0  0  0  0  0  0  0  0  0  0  0  0
    3.0613   -7.3456    0.0000 C   0  0  0  0  0  0  0  0  0  0  0  0
    1.8478   -6.4639    0.0000 C   0  0  0  0  0  0  0  0  0  0  0  0
    0.4775   -7.0740    0.0000 C   0  0  0  0  0  0  0  0  0  0  0  0
    2.0046   -4.9721    0.0000 N   0  0  0  0  0  0  0  0  0  0  0  0
    3.3037   -4.2221    0.0000 N   0  0  0  0  0  0  0  0  0  0  0  0
    2.9918   -2.7549    0.0000 C   0  0  0  0  0  0  0  0  0  0  0  0
    1.5000   -2.5981    0.0000 N   0  0  0  0  0  0  0  0  0  0  0  0
    0.7500   -1.2990    0.0000 C   0  0  0  0  0  0  0  0  0  0  0  0
    1.5000    0.0000    0.0000 C   0  0  0  0  0  0  0  0  0  0  0  0
    0.7500    1.2990    0.0000 C   0  0  0  0  0  0  0  0  0  0  0  0
   -0.7500    1.2990    0.0000 C   0  0  0  0  0  0  0  0  0  0  0  0
   -1.5000    2.5981    0.0000 N   0  0  0  0  0  0  0  0  0  0  0  0
   -0.7500    3.8971    0.0000 C   0  0  0  0  0  0  0  0  0  0  0  0
   -1.5000    5.1962    0.0000 C   0  0  0  0  0  0  0  0  0  0  0  0
   -3.0000    5.1962    0.0000 N   0  0  0  0  0  0  0  0  0  0  0  0
   -3.7500    6.4952    0.0000 C   0  0  0  0  0  0  0  0  0  0  0  0
   -3.0000    7.7942    0.0000 C   0  0  0  0  0  0  0  0  0  0  0  0
   -3.7500    9.0933    0.0000 C   0  0  0  0  0  0  0  0  0  0  0  0
   -5.2500    9.0933    0.0000 C   0  0  0  0  0  0  0  0  0  0  0  0
   -6.0000   10.3923    0.0000 O   0  0  0  0  0  0  0  0  0  0  0  0
   -5.2500   11.6913    0.0000 C   0  0  0  0  0  0  0  0  0  0  0  0
   -6.0000   12.9904    0.0000 C   0  0  0  0  0  0  0  0  0  0  0  0
   -7.4918   13.1472    0.0000 C   0  0  0  0  0  0  0  0  0  0  0  0
   -7.8037   14.6144    0.0000 O   0  0  0  0  0  0  0  0  0  0  0  0
   -6.5046   15.3644    0.0000 C   0  0  0  0  0  0  0  0  0  0  0  0
   -5.3899   16.3681    0.0000 C   0  0  0  0  0  0  0  0  0  0  0  0
   -3.9633   15.9046    0.0000 N   0  0  0  0  0  0  0  0  0  0  0  0
   -2.7498   16.7862    0.0000 C   0  0  0  0  0  0  0  0  0  0  0  0
   -1.5363   15.9046    0.0000 N   0  0  0  0  0  0  0  0  0  0  0  0
   -1.9998   14.4780    0.0000 C   0  0  0  0  0  0  0  0  0  0  0  0
   -3.4998   14.4780    0.0000 N   0  0  0  0  0  0  0  0  0  0  0  0
   -7.3863   16.5779    0.0000 C   0  0  0  0  0  0  0  0  0  0  0  0
   -6.7762   17.9482    0.0000 C   0  0  0  0  0  0  0  0  0  0  0  0
   -7.6579   19.1618    0.0000 C   0  0  0  0  0  0  0  0  0  0  0  0
   -9.1496   19.0050    0.0000 C   0  0  0  0  0  0  0  0  0  0  0  0
  -10.0313   20.2185    0.0000 Cl  0  0  0  0  0  0  0  0  0  0  0  0
   -9.7598   17.6347    0.0000 C   0  0  0  0  0  0  0  0  0  0  0  0
   -8.8781   16.4211    0.0000 C   0  0  0  0  0  0  0  0  0  0  0  0
   -9.4882   15.0508    0.0000 Cl  0  0  0  0  0  0  0  0  0  0  0  0
   -5.3899   14.3607    0.0000 O   0  0  0  0  0  0  0  0  0  0  0  0
   -6.0000    7.7942    0.0000 C   0  0  0  0  0  0  0  0  0  0  0  0
   -5.2500    6.4952    0.0000 C   0  0  0  0  0  0  0  0  0  0  0  0
   -3.7500    3.8971    0.0000 C   0  0  0  0  0  0  0  0  0  0  0  0
   -3.0000    2.5981    0.0000 C   0  0  0  0  0  0  0  0  0  0  0  0
   -1.5000    0.0000    0.0000 C   0  0  0  0  0  0  0  0  0  0  0  0
   -0.7500   -1.2990    0.0000 C   0  0  0  0  0  0  0  0  0  0  0  0
    0.8899   -3.9684    0.0000 C   0  0  0  0  0  0  0  0  0  0  0  0
   -0.5773   -4.2803    0.0000 O   0  0  0  0  0  0  0  0  0  0  0  0
  1  2  1  0
  2  3  1  0
  3  4  1  0
  3  5  1  0
  5  6  1  0
  6  7  2  0
  7  8  1  0
  8  9  1  0
  9 10  2  0
 10 11  1  0
 11 12  2  0
 12 13  1  0
 13 14  1  0
 14 15  1  0
 15 16  1  0
 16 17  1  0
 17 18  2  0
 18 19  1  0
 19 20  2  0
 20 21  1  0
 21 22  1  0
 22 23  1  0
 23 24  1  0
 24 25  1  0
 25 26  1  0
 26 27  1  0
 27 28  1  0
 28 29  1  0
 29 30  2  0
 30 31  1  0
 31 32  2  0
 26 33  1  0
 33 34  2  0
 34 35  1  0
 35 36  2  0
 36 37  1  0
 36 38  1  0
 38 39  2  0
 39 40  1  0
 26 41  1  0
 20 42  1  0
 42 43  2  0
 16 44  1  0
 44 45  1  0
 12 46  1  0
 46 47  2  0
  8 48  1  0
 48 49  2  0
 48  5  1  0
 47  9  1  0
 45 13  1  0
 43 17  1  0
 41 23  1  0
 32 28  1  0
 39 33  1  0
M  END
>  <assay_description>  (264) 
Inhibition of human BSEP overexpressed in Sf9 cell membrane vesicles assessed as uptake of [3H]-taurocholate in presence of ATP measured after 15 to 20 mins by membrane vesicle transport assay

>  <molecule_pref_name>  (264) 
ITRACONAZOLE

>  <canonical_smiles>  (264) 
CCC(C)n1ncn(-c2ccc(N3CCN(c4ccc(OCC5COC(Cn6cncn6)(c6ccc(Cl)cc6Cl)O5)cc4)CC3)cc2)c1=O

>  <pchembl_value>  (264) 
4.75

>  <standard_type>  (264) 
IC50

>  <standard_relation>  (264) 
=

>  <standard_value>  (264) 
18000.0

>  <standard_units>  (264) 
nM

>  <target_pref_name>  (264) 
Bile salt export pump

>  <target_organism>  (264) 
Homo sapiens

$$$$
CHEMBL472
     RDKit          2D

 33 35  0  0  0  0  0  0  0  0999 V2000
    3.7500   -1.2990    0.0000 C   0  0  0  0  0  0  0  0  0  0  0  0
    3.0000    0.0000    0.0000 O   0  0  0  0  0  0  0  0  0  0  0  0
    1.5000    0.0000    0.0000 C   0  0  0  0  0  0  0  0  0  0  0  0
    0.7500   -1.2990    0.0000 C   0  0  0  0  0  0  0  0  0  0  0  0
   -0.7500   -1.2990    0.0000 C   0  0  0  0  0  0  0  0  0  0  0  0
   -1.5000    0.0000    0.0000 C   0  0  0  0  0  0  0  0  0  0  0  0
   -3.0000    0.0000    0.0000 Cl  0  0  0  0  0  0  0  0  0  0  0  0
   -0.7500    1.2990    0.0000 C   0  0  0  0  0  0  0  0  0  0  0  0
    0.7500    1.2990    0.0000 C   0  0  0  0  0  0  0  0  0  0  0  0
    1.5000    2.5981    0.0000 C   0  0  0  0  0  0  0  0  0  0  0  0
    0.7500    3.8971    0.0000 O   0  0  0  0  0  0  0  0  0  0  0  0
    3.0000    2.5981    0.0000 N   0  0  0  0  0  0  0  0  0  0  0  0
    3.7500    3.8971    0.0000 C   0  0  0  0  0  0  0  0  0  0  0  0
    5.2500    3.8971    0.0000 C   0  0  0  0  0  0  0  0  0  0  0  0
    6.0000    5.1962    0.0000 C   0  0  0  0  0  0  0  0  0  0  0  0
    7.5000    5.1962    0.0000 C   0  0  0  0  0  0  0  0  0  0  0  0
    8.2500    6.4952    0.0000 C   0  0  0  0  0  0  0  0  0  0  0  0
    7.5000    7.7942    0.0000 C   0  0  0  0  0  0  0  0  0  0  0  0
    8.2500    9.0933    0.0000 S   0  0  0  0  0  0  0  0  0  0  0  0
    9.5490    8.3433    0.0000 O   0  0  0  0  0  0  0  0  0  0  0  0
    6.9510    9.8433    0.0000 O   0  0  0  0  0  0  0  0  0  0  0  0
    9.0000   10.3923    0.0000 N   0  0  0  0  0  0  0  0  0  0  0  0
    8.2500   11.6913    0.0000 C   0  0  0  0  0  0  0  0  0  0  0  0
    6.7500   11.6913    0.0000 O   0  0  0  0  0  0  0  0  0  0  0  0
    9.0000   12.9904    0.0000 N   0  0  0  0  0  0  0  0  0  0  0  0
    8.2500   14.2894    0.0000 C   0  0  0  0  0  0  0  0  0  0  0  0
    9.0000   15.5885    0.0000 C   0  0  0  0  0  0  0  0  0  0  0  0
    8.2500   16.8875    0.0000 C   0  0  0  0  0  0  0  0  0  0  0  0
    6.7500   16.8875    0.0000 C   0  0  0  0  0  0  0  0  0  0  0  0
    6.0000   15.5885    0.0000 C   0  0  0  0  0  0  0  0  0  0  0  0
    6.7500   14.2894    0.0000 C   0  0  0  0  0  0  0  0  0  0  0  0
    6.0000    7.7942    0.0000 C   0  0  0  0  0  0  0  0  0  0  0  0
    5.2500    6.4952    0.0000 C   0  0  0  0  0  0  0  0  0  0  0  0
  1  2  1  0
  2  3  1  0
  3  4  2  0
  4  5  1  0
  5  6  2  0
  6  7  1  0
  6  8  1  0
  8  9  2  0
  9 10  1  0
 10 11  2  0
 10 12  1  0
 12 13  1  0
 13 14  1  0
 14 15  1  0
 15 16  2  0
 16 17  1  0
 17 18  2  0
 18 19  1  0
 19 20  2  0
 19 21  2  0
 19 22  1  0
 22 23  1  0
 23 24  2  0
 23 25  1  0
 25 26  1  0
 26 27  1  0
 27 28  1  0
 28 29  1  0
 29 30  1  0
 30 31  1  0
 18 32  1  0
 32 33  2  0
  9  3  1  0
 33 15  1  0
 31 26  1  0
M  END
>  <assay_description>  (265) 
Inhibition of human BSEP overexpressed in Sf9 cell membrane vesicles assessed as uptake of [3H]-taurocholate in presence of ATP measured after 15 to 20 mins by membrane vesicle transport assay

>  <molecule_pref_name>  (265) 
GLYBURIDE

>  <canonical_smiles>  (265) 
COc1ccc(Cl)cc1C(=O)NCCc1ccc(S(=O)(=O)NC(=O)NC2CCCCC2)cc1

>  <pchembl_value>  (265) 
5.30

>  <standard_type>  (265) 
IC50

>  <standard_relation>  (265) 
=

>  <standard_value>  (265) 
5000.0

>  <standard_units>  (265) 
nM

>  <target_pref_name>  (265) 
Bile salt export pump

>  <target_organism>  (265) 
Homo sapiens

$$$$
CHEMBL1201016
     RDKit          2D

 37 39  0  0  0  0  0  0  0  0999 V2000
    5.2500   -1.2990    0.0000 C   0  0  0  0  0  0  0  0  0  0  0  0
    3.7500   -1.2990    0.0000 O   0  0  0  0  0  0  0  0  0  0  0  0
    3.0000    0.0000    0.0000 C   0  0  0  0  0  0  0  0  0  0  0  0
    1.5000    0.0000    0.0000 C   0  0  0  0  0  0  0  0  0  0  0  0
    0.7500   -1.2990    0.0000 C   0  0  0  0  0  0  0  0  0  0  0  0
    1.5000   -2.5981    0.0000 C   0  0  0  0  0  0  0  0  0  0  0  0
    3.0000   -2.5981    0.0000 O   0  0  0  0  0  0  0  0  0  0  0  0
    0.7500   -3.8971    0.0000 O   0  0  0  0  0  0  0  0  0  0  0  0
    1.5000   -5.1962    0.0000 C   0  0  0  0  0  0  0  0  0  0  0  0
    0.7500   -6.4952    0.0000 C   0  0  0  0  0  0  0  0  0  0  0  0
    3.0000   -5.1962    0.0000 O   0  0  0  0  0  0  0  0  0  0  0  0
    3.7500   -6.4952    0.0000 C   0  0  0  0  0  0  0  0  0  0  0  0
    3.0000   -7.7942    0.0000 O   0  0  0  0  0  0  0  0  0  0  0  0
    5.2500   -6.4952    0.0000 O   0  0  0  0  0  0  0  0  0  0  0  0
    6.0000   -7.7942    0.0000 C   0  0  0  0  0  0  0  0  0  0  0  0
    7.5000   -7.7942    0.0000 C   0  0  0  0  0  0  0  0  0  0  0  0
    5.2500   -9.0933    0.0000 C   0  0  0  0  0  0  0  0  0  0  0  0
   -0.7500   -1.2990    0.0000 N   0  0  0  0  0  0  0  0  0  0  0  0
   -2.0490   -2.0490    0.0000 C   0  0  0  0  0  0  0  0  0  0  0  0
   -2.4373   -3.4979    0.0000 O   0  0  0  0  0  0  0  0  0  0  0  0
   -2.7990   -0.7500    0.0000 C   0  0  0  0  0  0  0  0  0  0  0  0
   -4.2479   -0.3618    0.0000 N   0  0  0  0  0  0  0  0  0  0  0  0
   -4.6362    1.0871    0.0000 C   0  0  0  0  0  0  0  0  0  0  0  0
   -3.5755    2.1478    0.0000 O   0  0  0  0  0  0  0  0  0  0  0  0
   -6.0850    1.4753    0.0000 C   0  0  0  0  0  0  0  0  0  0  0  0
   -6.4733    2.9242    0.0000 N   0  0  0  0  0  0  0  0  0  0  0  0
   -5.4126    3.9849    0.0000 O   0  0  0  0  0  0  0  0  0  0  0  0
   -5.8008    5.4338    0.0000 C   0  0  0  0  0  0  0  0  0  0  0  0
   -7.1457    0.4147    0.0000 C   0  0  0  0  0  0  0  0  0  0  0  0
   -6.9111   -1.0668    0.0000 C   0  0  0  0  0  0  0  0  0  0  0  0
   -8.2476   -1.7478    0.0000 S   0  0  0  0  0  0  0  0  0  0  0  0
   -9.3082   -0.6872    0.0000 C   0  0  0  0  0  0  0  0  0  0  0  0
  -10.7898   -0.9218    0.0000 N   0  0  0  0  0  0  0  0  0  0  0  0
   -8.6272    0.6493    0.0000 N   0  0  0  0  0  0  0  0  0  0  0  0
   -1.5000    0.0000    0.0000 C   0  0  0  0  0  0  0  0  0  0  0  0
   -0.7500    1.2990    0.0000 S   0  0  0  0  0  0  0  0  0  0  0  0
    0.7500    1.2990    0.0000 C   0  0  0  0  0  0  0  0  0  0  0  0
  1  2  1  0
  2  3  1  0
  3  4  1  0
  4  5  2  0
  5  6  1  0
  6  7  2  0
  6  8  1  0
  8  9  1  0
  9 10  1  0
  9 11  1  0
 11 12  1  0
 12 13  2  0
 12 14  1  0
 14 15  1  0
 15 16  1  0
 15 17  1  0
  5 18  1  0
 18 19  1  0
 19 20  2  0
 19 21  1  0
 21 22  1  1
 22 23  1  0
 23 24  2  0
 23 25  1  0
 25 26  2  0
 26 27  1  0
 27 28  1  0
 25 29  1  0
 29 30  2  0
 30 31  1  0
 31 32  1  0
 32 33  1  0
 32 34  2  0
 21 35  1  0
 35 36  1  1
 36 37  1  0
 37  4  1  0
 35 18  1  0
 34 29  1  0
M  END
>  <assay_description>  (266) 
Inhibition of human BSEP overexpressed in Sf9 cell membrane vesicles assessed as uptake of [3H]-taurocholate in presence of ATP measured after 15 to 20 mins by membrane vesicle transport assay

>  <molecule_pref_name>  (266) 
CEFPODOXIME PROXETIL

>  <canonical_smiles>  (266) 
COCC1=C(C(=O)OC(C)OC(=O)OC(C)C)N2C(=O)[C@@H](NC(=O)/C(=N\OC)c3csc(N)n3)[C@H]2SC1

>  <pchembl_value>  (266) 
4.09

>  <standard_type>  (266) 
IC50

>  <standard_relation>  (266) 
=

>  <standard_value>  (266) 
81700.0

>  <standard_units>  (266) 
nM

>  <target_pref_name>  (266) 
Bile salt export pump

>  <target_organism>  (266) 
Homo sapiens

$$$$
CHEMBL56337
     RDKit          2D

 21 22  0  0  0  0  0  0  0  0999 V2000
   -0.7500   -3.8971    0.0000 C   0  0  0  0  0  0  0  0  0  0  0  0
    0.7500   -3.8971    0.0000 C   0  0  0  0  0  0  0  0  0  0  0  0
    1.5000   -5.1962    0.0000 C   0  0  0  0  0  0  0  0  0  0  0  0
    0.7500   -6.4952    0.0000 C   0  0  0  0  0  0  0  0  0  0  0  0
   -0.7418   -6.6520    0.0000 S   0  0  0  0  0  0  0  0  0  0  0  0
   -1.0537   -8.1192    0.0000 C   0  0  0  0  0  0  0  0  0  0  0  0
   -2.4240   -8.7293    0.0000 S   0  0  0  0  0  0  0  0  0  0  0  0
    0.2454   -8.8692    0.0000 N   0  0  0  0  0  0  0  0  0  0  0  0
    0.4022  -10.3610    0.0000 C   0  0  0  0  0  0  0  0  0  0  0  0
    1.7725  -10.9711    0.0000 C   0  0  0  0  0  0  0  0  0  0  0  0
    2.9860  -10.0894    0.0000 O   0  0  0  0  0  0  0  0  0  0  0  0
    1.9293  -12.4629    0.0000 O   0  0  0  0  0  0  0  0  0  0  0  0
    1.3601   -7.8655    0.0000 C   0  0  0  0  0  0  0  0  0  0  0  0
    2.8273   -8.1774    0.0000 O   0  0  0  0  0  0  0  0  0  0  0  0
    1.5000   -2.5981    0.0000 C   0  0  0  0  0  0  0  0  0  0  0  0
    0.7500   -1.2990    0.0000 C   0  0  0  0  0  0  0  0  0  0  0  0
    1.5000    0.0000    0.0000 C   0  0  0  0  0  0  0  0  0  0  0  0
    0.7500    1.2990    0.0000 C   0  0  0  0  0  0  0  0  0  0  0  0
   -0.7500    1.2990    0.0000 C   0  0  0  0  0  0  0  0  0  0  0  0
   -1.5000    0.0000    0.0000 C   0  0  0  0  0  0  0  0  0  0  0  0
   -0.7500   -1.2990    0.0000 C   0  0  0  0  0  0  0  0  0  0  0  0
  1  2  1  0
  2  3  1  0
  3  4  2  0
  4  5  1  0
  5  6  1  0
  6  7  2  0
  6  8  1  0
  8  9  1  0
  9 10  1  0
 10 11  2  0
 10 12  1  0
  8 13  1  0
 13 14  2  0
  2 15  2  0
 15 16  1  0
 16 17  2  0
 17 18  1  0
 18 19  2  0
 19 20  1  0
 20 21  2  0
 13  4  1  0
 21 16  1  0
M  END
>  <assay_description>  (267) 
Inhibition of human BSEP overexpressed in Sf9 cell membrane vesicles assessed as uptake of [3H]-taurocholate in presence of ATP measured after 15 to 20 mins by membrane vesicle transport assay

>  <molecule_pref_name>  (267) 
EPALRESTAT

>  <canonical_smiles>  (267) 
CC(/C=C1\SC(=S)N(CC(=O)O)C1=O)=C\c1ccccc1

>  <pchembl_value>  (267) 
4.43

>  <standard_type>  (267) 
IC50

>  <standard_relation>  (267) 
=

>  <standard_value>  (267) 
36800.0

>  <standard_units>  (267) 
nM

>  <target_pref_name>  (267) 
Bile salt export pump

>  <target_organism>  (267) 
Homo sapiens

$$$$
CHEMBL255044
     RDKit          2D

 22 23  0  0  0  0  0  0  0  0999 V2000
    7.5000   -2.5981    0.0000 C   0  0  0  0  0  0  0  0  0  0  0  0
    6.0000   -2.5981    0.0000 C   0  0  0  0  0  0  0  0  0  0  0  0
    5.2500   -1.2990    0.0000 O   0  0  0  0  0  0  0  0  0  0  0  0
    3.7500   -1.2990    0.0000 C   0  0  0  0  0  0  0  0  0  0  0  0
    3.0000   -2.5981    0.0000 O   0  0  0  0  0  0  0  0  0  0  0  0
    3.0000    0.0000    0.0000 N   0  0  0  0  0  0  0  0  0  0  0  0
    1.5000    0.0000    0.0000 C   0  0  0  0  0  0  0  0  0  0  0  0
    0.7500   -1.2990    0.0000 C   0  0  0  0  0  0  0  0  0  0  0  0
   -0.7500   -1.2990    0.0000 C   0  0  0  0  0  0  0  0  0  0  0  0
   -1.5000    0.0000    0.0000 C   0  0  0  0  0  0  0  0  0  0  0  0
   -3.0000    0.0000    0.0000 N   0  0  0  0  0  0  0  0  0  0  0  0
   -3.7500    1.2990    0.0000 C   0  0  0  0  0  0  0  0  0  0  0  0
   -5.2500    1.2990    0.0000 C   0  0  0  0  0  0  0  0  0  0  0  0
   -6.0000    2.5981    0.0000 C   0  0  0  0  0  0  0  0  0  0  0  0
   -7.5000    2.5981    0.0000 C   0  0  0  0  0  0  0  0  0  0  0  0
   -8.2500    1.2990    0.0000 C   0  0  0  0  0  0  0  0  0  0  0  0
   -9.7500    1.2990    0.0000 F   0  0  0  0  0  0  0  0  0  0  0  0
   -7.5000    0.0000    0.0000 C   0  0  0  0  0  0  0  0  0  0  0  0
   -6.0000    0.0000    0.0000 C   0  0  0  0  0  0  0  0  0  0  0  0
   -0.7500    1.2990    0.0000 N   0  0  0  0  0  0  0  0  0  0  0  0
    0.7500    1.2990    0.0000 C   0  0  0  0  0  0  0  0  0  0  0  0
    1.5000    2.5981    0.0000 N   0  0  0  0  0  0  0  0  0  0  0  0
  1  2  1  0
  2  3  1  0
  3  4  1  0
  4  5  2  0
  4  6  1  0
  6  7  1  0
  7  8  2  0
  8  9  1  0
  9 10  2  0
 10 11  1  0
 11 12  1  0
 12 13  1  0
 13 14  2  0
 14 15  1  0
 15 16  2  0
 16 17  1  0
 16 18  1  0
 18 19  2  0
 10 20  1  0
 20 21  2  0
 21 22  1  0
 21  7  1  0
 19 13  1  0
M  END
>  <assay_description>  (268) 
Inhibition of human BSEP overexpressed in Sf9 cell membrane vesicles assessed as uptake of [3H]-taurocholate in presence of ATP measured after 15 to 20 mins by membrane vesicle transport assay

>  <molecule_pref_name>  (268) 
FLUPIRTINE

>  <canonical_smiles>  (268) 
CCOC(=O)Nc1ccc(NCc2ccc(F)cc2)nc1N

>  <pchembl_value>  (268) 
4.45

>  <standard_type>  (268) 
IC50

>  <standard_relation>  (268) 
=

>  <standard_value>  (268) 
35500.0

>  <standard_units>  (268) 
nM

>  <target_pref_name>  (268) 
Bile salt export pump

>  <target_organism>  (268) 
Homo sapiens

$$$$
CHEMBL1164729
     RDKit          2D

 22 23  0  0  0  0  0  0  0  0999 V2000
    4.6740   -4.8322    0.0000 C   0  0  0  0  0  0  0  0  0  0  0  0
    3.3037   -4.2221    0.0000 C   0  0  0  0  0  0  0  0  0  0  0  0
    2.9918   -2.7549    0.0000 N   0  0  0  0  0  0  0  0  0  0  0  0
    1.5000   -2.5981    0.0000 C   0  0  0  0  0  0  0  0  0  0  0  0
    0.7500   -1.2990    0.0000 C   0  0  0  0  0  0  0  0  0  0  0  0
    1.5000    0.0000    0.0000 C   0  0  0  0  0  0  0  0  0  0  0  0
    0.7500    1.2990    0.0000 C   0  0  0  0  0  0  0  0  0  0  0  0
   -0.7500    1.2990    0.0000 C   0  0  0  0  0  0  0  0  0  0  0  0
   -1.5000    2.5981    0.0000 O   0  0  0  0  0  0  0  0  0  0  0  0
   -0.7500    3.8971    0.0000 C   0  0  0  0  0  0  0  0  0  0  0  0
   -1.5000    5.1962    0.0000 C   0  0  0  0  0  0  0  0  0  0  0  0
   -0.7500    6.4952    0.0000 C   0  0  0  0  0  0  0  0  0  0  0  0
   -3.0000    5.1962    0.0000 C   0  0  0  0  0  0  0  0  0  0  0  0
   -1.5000    0.0000    0.0000 C   0  0  0  0  0  0  0  0  0  0  0  0
   -3.0000    0.0000    0.0000 C   0  0  0  0  0  0  0  0  0  0  0  0
   -4.5000    0.0000    0.0000 N   0  0  0  0  0  0  0  0  0  0  0  0
   -0.7500   -1.2990    0.0000 C   0  0  0  0  0  0  0  0  0  0  0  0
    0.8899   -3.9684    0.0000 S   0  0  0  0  0  0  0  0  0  0  0  0
    2.0046   -4.9721    0.0000 C   0  0  0  0  0  0  0  0  0  0  0  0
    1.8478   -6.4639    0.0000 C   0  0  0  0  0  0  0  0  0  0  0  0
    3.0613   -7.3456    0.0000 O   0  0  0  0  0  0  0  0  0  0  0  0
    0.4775   -7.0740    0.0000 O   0  0  0  0  0  0  0  0  0  0  0  0
  1  2  1  0
  2  3  1  0
  3  4  2  0
  4  5  1  0
  5  6  2  0
  6  7  1  0
  7  8  2  0
  8  9  1  0
  9 10  1  0
 10 11  1  0
 11 12  1  0
 11 13  1  0
  8 14  1  0
 14 15  1  0
 15 16  3  0
 14 17  2  0
  4 18  1  0
 18 19  1  0
 19 20  1  0
 20 21  2  0
 20 22  1  0
 19  2  2  0
 17  5  1  0
M  END
>  <assay_description>  (269) 
Inhibition of human BSEP overexpressed in Sf9 cell membrane vesicles assessed as uptake of [3H]-taurocholate in presence of ATP measured after 15 to 20 mins by membrane vesicle transport assay

>  <molecule_pref_name>  (269) 
FEBUXOSTAT

>  <canonical_smiles>  (269) 
Cc1nc(-c2ccc(OCC(C)C)c(C#N)c2)sc1C(=O)O

>  <pchembl_value>  (269) 
4.37

>  <standard_type>  (269) 
IC50

>  <standard_relation>  (269) 
=

>  <standard_value>  (269) 
42900.0

>  <standard_units>  (269) 
nM

>  <target_pref_name>  (269) 
Bile salt export pump

>  <target_organism>  (269) 
Homo sapiens

$$$$
CHEMBL6
     RDKit          2D

 25 27  0  0  0  0  0  0  0  0999 V2000
    3.7500   -1.2990    0.0000 C   0  0  0  0  0  0  0  0  0  0  0  0
    3.0000    0.0000    0.0000 O   0  0  0  0  0  0  0  0  0  0  0  0
    1.5000    0.0000    0.0000 C   0  0  0  0  0  0  0  0  0  0  0  0
    0.7500   -1.2990    0.0000 C   0  0  0  0  0  0  0  0  0  0  0  0
   -0.7500   -1.2990    0.0000 C   0  0  0  0  0  0  0  0  0  0  0  0
   -1.5000    0.0000    0.0000 C   0  0  0  0  0  0  0  0  0  0  0  0
   -0.7500    1.2990    0.0000 C   0  0  0  0  0  0  0  0  0  0  0  0
    0.7500    1.2990    0.0000 C   0  0  0  0  0  0  0  0  0  0  0  0
   -1.7537    2.4138    0.0000 C   0  0  0  0  0  0  0  0  0  0  0  0
   -1.4418    3.8810    0.0000 C   0  0  0  0  0  0  0  0  0  0  0  0
   -2.5565    4.8847    0.0000 C   0  0  0  0  0  0  0  0  0  0  0  0
   -3.9831    4.4211    0.0000 O   0  0  0  0  0  0  0  0  0  0  0  0
   -2.2447    6.3519    0.0000 O   0  0  0  0  0  0  0  0  0  0  0  0
   -3.1240    1.8037    0.0000 C   0  0  0  0  0  0  0  0  0  0  0  0
   -4.4231    2.5537    0.0000 C   0  0  0  0  0  0  0  0  0  0  0  0
   -2.9672    0.3119    0.0000 N   0  0  0  0  0  0  0  0  0  0  0  0
   -4.0819   -0.6918    0.0000 C   0  0  0  0  0  0  0  0  0  0  0  0
   -3.7701   -2.1590    0.0000 O   0  0  0  0  0  0  0  0  0  0  0  0
   -5.5085   -0.2283    0.0000 C   0  0  0  0  0  0  0  0  0  0  0  0
   -5.8204    1.2389    0.0000 C   0  0  0  0  0  0  0  0  0  0  0  0
   -7.2470    1.7024    0.0000 C   0  0  0  0  0  0  0  0  0  0  0  0
   -8.3617    0.6987    0.0000 C   0  0  0  0  0  0  0  0  0  0  0  0
   -9.7883    1.1623    0.0000 Cl  0  0  0  0  0  0  0  0  0  0  0  0
   -8.0498   -0.7685    0.0000 C   0  0  0  0  0  0  0  0  0  0  0  0
   -6.6232   -1.2320    0.0000 C   0  0  0  0  0  0  0  0  0  0  0  0
  1  2  1  0
  2  3  1  0
  3  4  2  0
  4  5  1  0
  5  6  2  0
  6  7  1  0
  7  8  2  0
  7  9  1  0
  9 10  1  0
 10 11  1  0
 11 12  2  0
 11 13  1  0
  9 14  2  0
 14 15  1  0
 14 16  1  0
 16 17  1  0
 17 18  2  0
 17 19  1  0
 19 20  2  0
 20 21  1  0
 21 22  2  0
 22 23  1  0
 22 24  1  0
 24 25  2  0
  8  3  1  0
 25 19  1  0
 16  6  1  0
M  END
>  <assay_description>  (270) 
Inhibition of human BSEP overexpressed in Sf9 cell membrane vesicles assessed as uptake of [3H]-taurocholate in presence of ATP measured after 15 to 20 mins by membrane vesicle transport assay

>  <molecule_pref_name>  (270) 
INDOMETHACIN

>  <canonical_smiles>  (270) 
COc1ccc2c(c1)c(CC(=O)O)c(C)n2C(=O)c1ccc(Cl)cc1

>  <pchembl_value>  (270) 
4.38

>  <standard_type>  (270) 
IC50

>  <standard_relation>  (270) 
=

>  <standard_value>  (270) 
42000.0

>  <standard_units>  (270) 
nM

>  <target_pref_name>  (270) 
Bile salt export pump

>  <target_organism>  (270) 
Homo sapiens

$$$$
CHEMBL551978
     RDKit          2D

 29 31  0  0  0  0  0  0  0  0999 V2000
    9.7500   -3.8971    0.0000 C   0  0  0  0  0  0  0  0  0  0  0  0
    8.2500   -3.8971    0.0000 C   0  0  0  0  0  0  0  0  0  0  0  0
    7.5000   -2.5981    0.0000 O   0  0  0  0  0  0  0  0  0  0  0  0
    6.0000   -2.5981    0.0000 C   0  0  0  0  0  0  0  0  0  0  0  0
    5.2500   -3.8971    0.0000 C   0  0  0  0  0  0  0  0  0  0  0  0
    3.7500   -3.8971    0.0000 C   0  0  0  0  0  0  0  0  0  0  0  0
    3.0000   -2.5981    0.0000 C   0  0  0  0  0  0  0  0  0  0  0  0
    1.5000   -2.5981    0.0000 C   0  0  0  0  0  0  0  0  0  0  0  0
    0.7500   -1.2990    0.0000 C   0  0  0  0  0  0  0  0  0  0  0  0
    1.5000    0.0000    0.0000 N   0  0  0  0  0  0  0  0  0  0  0  0
    0.7500    1.2990    0.0000 C   0  0  0  0  0  0  0  0  0  0  0  0
   -0.7500    1.2990    0.0000 C   0  0  0  0  0  0  0  0  0  0  0  0
   -1.5000    0.0000    0.0000 C   0  0  0  0  0  0  0  0  0  0  0  0
   -3.0000    0.0000    0.0000 C   0  0  0  0  0  0  0  0  0  0  0  0
   -3.7500   -1.2990    0.0000 C   0  0  0  0  0  0  0  0  0  0  0  0
   -5.2500   -1.2990    0.0000 O   0  0  0  0  0  0  0  0  0  0  0  0
   -6.0000    0.0000    0.0000 C   0  0  0  0  0  0  0  0  0  0  0  0
   -7.5000   -0.0000    0.0000 C   0  0  0  0  0  0  0  0  0  0  0  0
   -3.0000   -2.5981    0.0000 C   0  0  0  0  0  0  0  0  0  0  0  0
   -3.7500   -3.8971    0.0000 O   0  0  0  0  0  0  0  0  0  0  0  0
   -3.0000   -5.1962    0.0000 C   0  0  0  0  0  0  0  0  0  0  0  0
   -3.7500   -6.4952    0.0000 C   0  0  0  0  0  0  0  0  0  0  0  0
   -1.5000   -2.5981    0.0000 C   0  0  0  0  0  0  0  0  0  0  0  0
   -0.7500   -1.2990    0.0000 C   0  0  0  0  0  0  0  0  0  0  0  0
    3.7500   -1.2990    0.0000 C   0  0  0  0  0  0  0  0  0  0  0  0
    5.2500   -1.2990    0.0000 C   0  0  0  0  0  0  0  0  0  0  0  0
    6.0000   -0.0000    0.0000 O   0  0  0  0  0  0  0  0  0  0  0  0
    5.2500    1.2990    0.0000 C   0  0  0  0  0  0  0  0  0  0  0  0
    6.0000    2.5981    0.0000 C   0  0  0  0  0  0  0  0  0  0  0  0
  1  2  1  0
  2  3  1  0
  3  4  1  0
  4  5  2  0
  5  6  1  0
  6  7  2  0
  7  8  1  0
  8  9  2  0
  9 10  1  0
 10 11  1  0
 11 12  1  0
 12 13  1  0
 13 14  2  0
 14 15  1  0
 15 16  1  0
 16 17  1  0
 17 18  1  0
 15 19  2  0
 19 20  1  0
 20 21  1  0
 21 22  1  0
 19 23  1  0
 23 24  2  0
  7 25  1  0
 25 26  2  0
 26 27  1  0
 27 28  1  0
 28 29  1  0
 26  4  1  0
 24  9  1  0
 24 13  1  0
M  END
>  <assay_description>  (271) 
Inhibition of human BSEP overexpressed in Sf9 cell membrane vesicles assessed as uptake of [3H]-taurocholate in presence of ATP measured after 15 to 20 mins by membrane vesicle transport assay

>  <molecule_pref_name>  (271) 
DROTAVERINE

>  <canonical_smiles>  (271) 
CCOc1ccc(/C=C2\NCCc3cc(OCC)c(OCC)cc32)cc1OCC

>  <pchembl_value>  (271) 
4.43

>  <standard_type>  (271) 
IC50

>  <standard_relation>  (271) 
=

>  <standard_value>  (271) 
37000.0

>  <standard_units>  (271) 
nM

>  <target_pref_name>  (271) 
Bile salt export pump

>  <target_organism>  (271) 
Homo sapiens

$$$$
CHEMBL1201182
     RDKit          2D

 73 76  0  0  0  0  0  0  0  0999 V2000
    9.2437   -7.3954    0.0000 C   0  0  0  0  0  0  0  0  0  0  0  0
    8.4244   -8.6519    0.0000 O   0  0  0  0  0  0  0  0  0  0  0  0
    6.9266   -8.5707    0.0000 C   0  0  0  0  0  0  0  0  0  0  0  0
    6.8454   -7.0729    0.0000 C   0  0  0  0  0  0  0  0  0  0  0  0
    6.4441   -5.6276    0.0000 C   0  0  0  0  0  0  0  0  0  0  0  0
    7.4700   -4.4677    0.0000 C   0  0  0  0  0  0  0  0  0  0  0  0
    7.3617   -2.9716    0.0000 C   0  0  0  0  0  0  0  0  0  0  0  0
    6.0120   -2.3173    0.0000 C   0  0  0  0  0  0  0  0  0  0  0  0
    5.9037   -0.8212    0.0000 C   0  0  0  0  0  0  0  0  0  0  0  0
    4.7704   -3.1591    0.0000 C   0  0  0  0  0  0  0  0  0  0  0  0
    5.2059   -2.3878    0.0000 O   0  0  0  0  0  0  0  0  0  0  0  0
    5.7415   -4.3023    0.0000 O   0  0  0  0  0  0  0  0  0  0  0  0
    3.5763   -2.2513    0.0000 C   0  0  0  0  0  0  0  0  0  0  0  0
    4.3496   -0.9660    0.0000 O   0  0  0  0  0  0  0  0  0  0  0  0
    2.2149   -1.6215    0.0000 C   0  0  0  0  0  0  0  0  0  0  0  0
    2.6939   -0.2000    0.0000 O   0  0  0  0  0  0  0  0  0  0  0  0
    0.7500   -1.2990    0.0000 N   0  0  0  0  0  0  0  0  0  0  0  0
    1.5000    0.0000    0.0000 C   0  0  0  0  0  0  0  0  0  0  0  0
    0.7500    1.2990    0.0000 C   0  0  0  0  0  0  0  0  0  0  0  0
   -0.7500    1.2990    0.0000 C   0  0  0  0  0  0  0  0  0  0  0  0
   -1.5000    0.0000    0.0000 C   0  0  0  0  0  0  0  0  0  0  0  0
   -0.7500   -1.2990    0.0000 C   0  0  0  0  0  0  0  0  0  0  0  0
   -2.2149   -1.6215    0.0000 C   0  0  0  0  0  0  0  0  0  0  0  0
   -2.6939   -0.2000    0.0000 O   0  0  0  0  0  0  0  0  0  0  0  0
   -3.5763   -2.2513    0.0000 O   0  0  0  0  0  0  0  0  0  0  0  0
   -4.7704   -3.1591    0.0000 C   0  0  0  0  0  0  0  0  0  0  0  0
   -5.8020   -2.0701    0.0000 C   0  0  0  0  0  0  0  0  0  0  0  0
   -5.3747   -0.6323    0.0000 C   0  0  0  0  0  0  0  0  0  0  0  0
   -7.2609   -2.4189    0.0000 C   0  0  0  0  0  0  0  0  0  0  0  0
   -8.2924   -1.3300    0.0000 C   0  0  0  0  0  0  0  0  0  0  0  0
   -7.8651    0.1079    0.0000 C   0  0  0  0  0  0  0  0  0  0  0  0
   -8.8966    1.1969    0.0000 C   0  0  0  0  0  0  0  0  0  0  0  0
  -10.3555    0.8480    0.0000 C   0  0  0  0  0  0  0  0  0  0  0  0
  -11.3870    1.9370    0.0000 O   0  0  0  0  0  0  0  0  0  0  0  0
  -10.9597    3.3749    0.0000 C   0  0  0  0  0  0  0  0  0  0  0  0
   -9.5009    3.7237    0.0000 O   0  0  0  0  0  0  0  0  0  0  0  0
  -11.9913    4.4639    0.0000 C   0  0  0  0  0  0  0  0  0  0  0  0
  -10.9023    5.4954    0.0000 C   0  0  0  0  0  0  0  0  0  0  0  0
  -13.0803    3.4323    0.0000 C   0  0  0  0  0  0  0  0  0  0  0  0
  -14.5181    3.8596    0.0000 O   0  0  0  0  0  0  0  0  0  0  0  0
  -13.0228    5.5529    0.0000 C   0  0  0  0  0  0  0  0  0  0  0  0
  -14.4817    5.2040    0.0000 O   0  0  0  0  0  0  0  0  0  0  0  0
  -10.7828   -0.5898    0.0000 C   0  0  0  0  0  0  0  0  0  0  0  0
  -12.2417   -0.9387    0.0000 O   0  0  0  0  0  0  0  0  0  0  0  0
  -12.6690   -2.3765    0.0000 C   0  0  0  0  0  0  0  0  0  0  0  0
   -9.7513   -1.6788    0.0000 C   0  0  0  0  0  0  0  0  0  0  0  0
   -5.7415   -4.3023    0.0000 C   0  0  0  0  0  0  0  0  0  0  0  0
   -6.4441   -5.6276    0.0000 C   0  0  0  0  0  0  0  0  0  0  0  0
   -7.8376   -5.0724    0.0000 O   0  0  0  0  0  0  0  0  0  0  0  0
   -6.8454   -7.0729    0.0000 C   0  0  0  0  0  0  0  0  0  0  0  0
   -8.3257   -6.8303    0.0000 C   0  0  0  0  0  0  0  0  0  0  0  0
   -6.9266   -8.5707    0.0000 C   0  0  0  0  0  0  0  0  0  0  0  0
   -6.6840  -10.0510    0.0000 C   0  0  0  0  0  0  0  0  0  0  0  0
   -8.1293  -10.4523    0.0000 C   0  0  0  0  0  0  0  0  0  0  0  0
   -6.1287  -11.4444    0.0000 C   0  0  0  0  0  0  0  0  0  0  0  0
   -7.4540  -12.1470    0.0000 O   0  0  0  0  0  0  0  0  0  0  0  0
   -5.2870  -12.6860    0.0000 C   0  0  0  0  0  0  0  0  0  0  0  0
   -6.4302  -13.6570    0.0000 O   0  0  0  0  0  0  0  0  0  0  0  0
   -6.1609  -15.1327    0.0000 C   0  0  0  0  0  0  0  0  0  0  0  0
   -4.1980  -13.7175    0.0000 C   0  0  0  0  0  0  0  0  0  0  0  0
   -5.1057  -14.9117    0.0000 O   0  0  0  0  0  0  0  0  0  0  0  0
   -2.9127  -14.4908    0.0000 C   0  0  0  0  0  0  0  0  0  0  0  0
   -3.5425  -15.8522    0.0000 C   0  0  0  0  0  0  0  0  0  0  0  0
   -1.4912  -14.9698    0.0000 C   0  0  0  0  0  0  0  0  0  0  0  0
    0.0000  -15.1320    0.0000 C   0  0  0  0  0  0  0  0  0  0  0  0
    0.0000  -16.6320    0.0000 C   0  0  0  0  0  0  0  0  0  0  0  0
    1.4912  -14.9698    0.0000 C   0  0  0  0  0  0  0  0  0  0  0  0
    2.9127  -14.4908    0.0000 C   0  0  0  0  0  0  0  0  0  0  0  0
    4.1980  -13.7175    0.0000 C   0  0  0  0  0  0  0  0  0  0  0  0
    5.2870  -12.6860    0.0000 C   0  0  0  0  0  0  0  0  0  0  0  0
    6.1287  -11.4444    0.0000 C   0  0  0  0  0  0  0  0  0  0  0  0
    6.6840  -10.0510    0.0000 C   0  0  0  0  0  0  0  0  0  0  0  0
    8.1293  -10.4523    0.0000 C   0  0  0  0  0  0  0  0  0  0  0  0
  1  2  1  0
  3  2  1  6
  3  4  1  0
  5  4  1  1
  5  6  1  0
  6  7  1  0
  7  8  1  0
  8  9  1  6
  8 10  1  0
 10 11  1  6
 10 12  1  0
 10 13  1  0
 13 14  2  0
 13 15  1  0
 15 16  2  0
 15 17  1  0
 17 18  1  0
 18 19  1  0
 19 20  1  0
 20 21  1  0
 22 21  1  6
 22 23  1  0
 23 24  2  0
 23 25  1  0
 25 26  1  0
 26 27  1  0
 27 28  1  1
 27 29  1  0
 30 29  1  1
 30 31  1  0
 31 32  1  0
 32 33  1  0
 33 34  1  6
 34 35  1  0
 35 36  2  0
 35 37  1  0
 37 38  1  0
 37 39  1  0
 39 40  1  0
 37 41  1  0
 41 42  1  0
 33 43  1  0
 43 44  1  1
 44 45  1  0
 43 46  1  0
 26 47  1  1
 47 48  1  0
 48 49  2  0
 48 50  1  0
 50 51  1  1
 50 52  1  0
 52 53  2  0
 53 54  1  0
 53 55  1  0
 55 56  1  6
 55 57  1  0
 57 58  1  6
 58 59  1  0
 57 60  1  0
 60 61  2  0
 60 62  1  0
 62 63  1  1
 62 64  1  0
 64 65  1  0
 65 66  1  1
 65 67  1  0
 67 68  2  0
 68 69  1  0
 69 70  2  0
 70 71  1  0
 71 72  2  0
 72 73  1  0
 72  3  1  0
 12  5  1  0
 22 17  1  0
 46 30  1  0
M  END
>  <assay_description>  (272) 
Inhibition of human BSEP overexpressed in Sf9 cell membrane vesicles assessed as uptake of [3H]-taurocholate in presence of ATP measured after 15 to 20 mins by membrane vesicle transport assay

>  <molecule_pref_name>  (272) 
TEMSIROLIMUS

>  <canonical_smiles>  (272) 
CO[C@H]1C[C@@H]2CC[C@@H](C)[C@@](O)(O2)C(=O)C(=O)N2CCCC[C@H]2C(=O)O[C@H]([C@H](C)C[C@@H]2CC[C@@H](OC(=O)C(C)(CO)CO)[C@H](OC)C2)CC(=O)[C@H](C)/C=C(\C)[C@@H](O)[C@@H](OC)C(=O)[C@H](C)C[C@H](C)/C=C/C=C/C=C/1C

>  <pchembl_value>  (272) 
5.57

>  <standard_type>  (272) 
IC50

>  <standard_relation>  (272) 
=

>  <standard_value>  (272) 
2690.0

>  <standard_units>  (272) 
nM

>  <target_pref_name>  (272) 
Bile salt export pump

>  <target_organism>  (272) 
Homo sapiens

$$$$
CHEMBL633
     RDKit          2D

 31 33  0  0  0  0  0  0  0  0999 V2000
    2.5981   -8.1073    0.0000 C   0  0  0  0  0  0  0  0  0  0  0  0
    1.2990   -7.3573    0.0000 C   0  0  0  0  0  0  0  0  0  0  0  0
    1.2990   -5.8573    0.0000 C   0  0  0  0  0  0  0  0  0  0  0  0
   -0.0000   -5.1073    0.0000 C   0  0  0  0  0  0  0  0  0  0  0  0
   -0.0000   -3.6073    0.0000 C   0  0  0  0  0  0  0  0  0  0  0  0
    1.2135   -2.7256    0.0000 O   0  0  0  0  0  0  0  0  0  0  0  0
    0.7500   -1.2990    0.0000 C   0  0  0  0  0  0  0  0  0  0  0  0
    1.5000    0.0000    0.0000 C   0  0  0  0  0  0  0  0  0  0  0  0
    0.7500    1.2990    0.0000 C   0  0  0  0  0  0  0  0  0  0  0  0
   -0.7500    1.2990    0.0000 C   0  0  0  0  0  0  0  0  0  0  0  0
   -1.5000    0.0000    0.0000 C   0  0  0  0  0  0  0  0  0  0  0  0
   -0.7500   -1.2990    0.0000 C   0  0  0  0  0  0  0  0  0  0  0  0
   -1.2135   -2.7256    0.0000 C   0  0  0  0  0  0  0  0  0  0  0  0
   -2.6401   -3.1891    0.0000 C   0  0  0  0  0  0  0  0  0  0  0  0
   -3.7548   -2.1855    0.0000 O   0  0  0  0  0  0  0  0  0  0  0  0
   -2.9520   -4.6564    0.0000 C   0  0  0  0  0  0  0  0  0  0  0  0
   -4.3786   -5.1199    0.0000 C   0  0  0  0  0  0  0  0  0  0  0  0
   -4.6904   -6.5871    0.0000 C   0  0  0  0  0  0  0  0  0  0  0  0
   -6.1170   -7.0506    0.0000 I   0  0  0  0  0  0  0  0  0  0  0  0
   -3.5757   -7.5908    0.0000 C   0  0  0  0  0  0  0  0  0  0  0  0
   -3.8876   -9.0580    0.0000 O   0  0  0  0  0  0  0  0  0  0  0  0
   -2.7729  -10.0617    0.0000 C   0  0  0  0  0  0  0  0  0  0  0  0
   -3.0847  -11.5290    0.0000 C   0  0  0  0  0  0  0  0  0  0  0  0
   -1.9700  -12.5326    0.0000 N   0  0  0  0  0  0  0  0  0  0  0  0
   -2.2819  -13.9999    0.0000 C   0  0  0  0  0  0  0  0  0  0  0  0
   -1.1672  -15.0036    0.0000 C   0  0  0  0  0  0  0  0  0  0  0  0
   -0.5434  -12.0691    0.0000 C   0  0  0  0  0  0  0  0  0  0  0  0
    0.5713  -13.0728    0.0000 C   0  0  0  0  0  0  0  0  0  0  0  0
   -2.1491   -7.1273    0.0000 C   0  0  0  0  0  0  0  0  0  0  0  0
   -1.0344   -8.1310    0.0000 I   0  0  0  0  0  0  0  0  0  0  0  0
   -1.8373   -5.6601    0.0000 C   0  0  0  0  0  0  0  0  0  0  0  0
  1  2  1  0
  2  3  1  0
  3  4  1  0
  4  5  1  0
  5  6  1  0
  6  7  1  0
  7  8  2  0
  8  9  1  0
  9 10  2  0
 10 11  1  0
 11 12  2  0
 12 13  1  0
 13 14  1  0
 14 15  2  0
 14 16  1  0
 16 17  2  0
 17 18  1  0
 18 19  1  0
 18 20  2  0
 20 21  1  0
 21 22  1  0
 22 23  1  0
 23 24  1  0
 24 25  1  0
 25 26  1  0
 24 27  1  0
 27 28  1  0
 20 29  1  0
 29 30  1  0
 29 31  2  0
 13  5  2  0
 31 16  1  0
 12  7  1  0
M  END
>  <assay_description>  (273) 
Inhibition of human BSEP overexpressed in Sf9 cell membrane vesicles assessed as uptake of [3H]-taurocholate in presence of ATP measured after 15 to 20 mins by membrane vesicle transport assay

>  <molecule_pref_name>  (273) 
AMIODARONE

>  <canonical_smiles>  (273) 
CCCCc1oc2ccccc2c1C(=O)c1cc(I)c(OCCN(CC)CC)c(I)c1

>  <pchembl_value>  (273) 
4.37

>  <standard_type>  (273) 
IC50

>  <standard_relation>  (273) 
=

>  <standard_value>  (273) 
43000.0

>  <standard_units>  (273) 
nM

>  <target_pref_name>  (273) 
Bile salt export pump

>  <target_organism>  (273) 
Homo sapiens

$$$$
CHEMBL953
     RDKit          2D

 22 22  0  0  0  0  0  0  0  0999 V2000
    8.2500   -3.8971    0.0000 C   0  0  0  0  0  0  0  0  0  0  0  0
    7.5000   -2.5981    0.0000 C   0  0  0  0  0  0  0  0  0  0  0  0
    6.0000   -2.5981    0.0000 N   0  0  0  0  0  0  0  0  0  0  0  0
    5.2500   -3.8971    0.0000 C   0  0  0  0  0  0  0  0  0  0  0  0
    6.0000   -5.1962    0.0000 C   0  0  0  0  0  0  0  0  0  0  0  0
    5.2500   -1.2990    0.0000 C   0  0  0  0  0  0  0  0  0  0  0  0
    6.0000    0.0000    0.0000 O   0  0  0  0  0  0  0  0  0  0  0  0
    3.7500   -1.2990    0.0000 C   0  0  0  0  0  0  0  0  0  0  0  0
    3.0000   -2.5981    0.0000 C   0  0  0  0  0  0  0  0  0  0  0  0
    2.2500   -3.8971    0.0000 N   0  0  0  0  0  0  0  0  0  0  0  0
    3.0000    0.0000    0.0000 C   0  0  0  0  0  0  0  0  0  0  0  0
    1.5000    0.0000    0.0000 C   0  0  0  0  0  0  0  0  0  0  0  0
    0.7500   -1.2990    0.0000 C   0  0  0  0  0  0  0  0  0  0  0  0
   -0.7500   -1.2990    0.0000 C   0  0  0  0  0  0  0  0  0  0  0  0
   -1.5000   -2.5981    0.0000 O   0  0  0  0  0  0  0  0  0  0  0  0
   -1.5000    0.0000    0.0000 C   0  0  0  0  0  0  0  0  0  0  0  0
   -3.0000    0.0000    0.0000 O   0  0  0  0  0  0  0  0  0  0  0  0
   -0.7500    1.2990    0.0000 C   0  0  0  0  0  0  0  0  0  0  0  0
   -1.5000    2.5981    0.0000 N   0  0  0  0  0  4  0  0  0  0  0  0
   -3.0000    2.5981    0.0000 O   0  0  0  0  0  0  0  0  0  0  0  0
   -0.7500    3.8971    0.0000 O   0  0  0  0  0  1  0  0  0  0  0  0
    0.7500    1.2990    0.0000 C   0  0  0  0  0  0  0  0  0  0  0  0
  1  2  1  0
  2  3  1  0
  3  4  1  0
  4  5  1  0
  3  6  1  0
  6  7  2  0
  6  8  1  0
  8  9  1  0
  9 10  3  0
  8 11  2  0
 11 12  1  0
 12 13  2  0
 13 14  1  0
 14 15  1  0
 14 16  2  0
 16 17  1  0
 16 18  1  0
 18 19  1  0
 19 20  2  0
 19 21  1  0
 18 22  2  0
 22 12  1  0
M  CHG  2  19   1  21  -1
M  END
>  <assay_description>  (274) 
Inhibition of human BSEP overexpressed in Sf9 cell membrane vesicles assessed as uptake of [3H]-taurocholate in presence of ATP measured after 15 to 20 mins by membrane vesicle transport assay

>  <molecule_pref_name>  (274) 
ENTACAPONE

>  <canonical_smiles>  (274) 
CCN(CC)C(=O)/C(C#N)=C/c1cc(O)c(O)c([N+](=O)[O-])c1

>  <pchembl_value>  (274) 
4.25

>  <standard_type>  (274) 
IC50

>  <standard_relation>  (274) 
=

>  <standard_value>  (274) 
55600.0

>  <standard_units>  (274) 
nM

>  <target_pref_name>  (274) 
Bile salt export pump

>  <target_organism>  (274) 
Homo sapiens

$$$$
CHEMBL383634
     RDKit          2D

 37 40  0  0  0  0  0  0  0  0999 V2000
    3.7500   -1.2990    0.0000 C   0  0  0  0  0  0  0  0  0  0  0  0
    3.0000    0.0000    0.0000 O   0  0  0  0  0  0  0  0  0  0  0  0
    1.5000    0.0000    0.0000 C   0  0  0  0  0  0  0  0  0  0  0  0
    0.7500   -1.2990    0.0000 C   0  0  0  0  0  0  0  0  0  0  0  0
   -0.7500   -1.2990    0.0000 C   0  0  0  0  0  0  0  0  0  0  0  0
   -1.5000    0.0000    0.0000 C   0  0  0  0  0  0  0  0  0  0  0  0
   -0.7500    1.2990    0.0000 C   0  0  0  0  0  0  0  0  0  0  0  0
    0.7500    1.2990    0.0000 C   0  0  0  0  0  0  0  0  0  0  0  0
   -1.5000    2.5981    0.0000 C   0  0  0  0  0  0  0  0  0  0  0  0
   -0.7500    3.8971    0.0000 O   0  0  0  0  0  0  0  0  0  0  0  0
   -3.0000    2.5981    0.0000 N   0  0  0  0  0  0  0  0  0  0  0  0
   -3.7500    3.8971    0.0000 C   0  0  0  0  0  0  0  0  0  0  0  0
   -3.0000    5.1962    0.0000 C   0  0  0  0  0  0  0  0  0  0  0  0
   -3.7500    6.4952    0.0000 C   0  0  0  0  0  0  0  0  0  0  0  0
   -3.0000    7.7942    0.0000 C   0  0  0  0  0  0  0  0  0  0  0  0
   -3.7500    9.0933    0.0000 C   0  0  0  0  0  0  0  0  0  0  0  0
   -5.2500    9.0933    0.0000 C   0  0  0  0  0  0  0  0  0  0  0  0
   -6.0000   10.3923    0.0000 S   0  0  0  0  0  0  0  0  0  0  0  0
   -4.7010   11.1423    0.0000 O   0  0  0  0  0  0  0  0  0  0  0  0
   -7.2990    9.6423    0.0000 O   0  0  0  0  0  0  0  0  0  0  0  0
   -6.7500   11.6913    0.0000 N   0  0  0  0  0  0  0  0  0  0  0  0
   -8.2500   11.6913    0.0000 C   0  0  0  0  0  0  0  0  0  0  0  0
   -9.0000   10.3923    0.0000 O   0  0  0  0  0  0  0  0  0  0  0  0
   -9.0000   12.9904    0.0000 N   0  0  0  0  0  0  0  0  0  0  0  0
  -10.5000   12.9904    0.0000 C   0  0  0  0  0  0  0  0  0  0  0  0
  -11.2500   14.2894    0.0000 C   0  0  0  0  0  0  0  0  0  0  0  0
  -12.7500   14.2894    0.0000 C   0  0  0  0  0  0  0  0  0  0  0  0
  -13.5000   12.9904    0.0000 C   0  0  0  0  0  0  0  0  0  0  0  0
  -12.7500   11.6913    0.0000 C   0  0  0  0  0  0  0  0  0  0  0  0
  -11.2500   11.6913    0.0000 C   0  0  0  0  0  0  0  0  0  0  0  0
   -6.0000    7.7942    0.0000 C   0  0  0  0  0  0  0  0  0  0  0  0
   -5.2500    6.4952    0.0000 C   0  0  0  0  0  0  0  0  0  0  0  0
   -3.7500    1.2990    0.0000 C   0  0  0  0  0  0  0  0  0  0  0  0
   -5.2500    1.2990    0.0000 O   0  0  0  0  0  0  0  0  0  0  0  0
   -3.0000    0.0000    0.0000 C   0  0  0  0  0  0  0  0  0  0  0  0
   -2.7395   -1.4772    0.0000 C   0  0  0  0  0  0  0  0  0  0  0  0
   -4.4095   -0.5130    0.0000 C   0  0  0  0  0  0  0  0  0  0  0  0
  1  2  1  0
  2  3  1  0
  3  4  2  0
  4  5  1  0
  5  6  2  0
  6  7  1  0
  7  8  2  0
  7  9  1  0
  9 10  2  0
  9 11  1  0
 11 12  1  0
 12 13  1  0
 13 14  1  0
 14 15  2  0
 15 16  1  0
 16 17  2  0
 17 18  1  0
 18 19  2  0
 18 20  2  0
 18 21  1  0
 21 22  1  0
 22 23  2  0
 22 24  1  0
 24 25  1  0
 25 26  1  0
 26 27  1  0
 27 28  1  0
 28 29  1  0
 29 30  1  0
 17 31  1  0
 31 32  2  0
 11 33  1  0
 33 34  2  0
 33 35  1  0
 35 36  1  0
 35 37  1  0
  8  3  1  0
 32 14  1  0
 35  6  1  0
 30 25  1  0
M  END
>  <assay_description>  (275) 
Inhibition of human BSEP overexpressed in Sf9 cell membrane vesicles assessed as uptake of [3H]-taurocholate in presence of ATP measured after 15 to 20 mins by membrane vesicle transport assay

>  <molecule_pref_name>  (275) 
GLIQUIDONE

>  <canonical_smiles>  (275) 
COc1ccc2c(c1)C(=O)N(CCc1ccc(S(=O)(=O)NC(=O)NC3CCCCC3)cc1)C(=O)C2(C)C

>  <pchembl_value>  (275) 
4.94

>  <standard_type>  (275) 
IC50

>  <standard_relation>  (275) 
=

>  <standard_value>  (275) 
11600.0

>  <standard_units>  (275) 
nM

>  <target_pref_name>  (275) 
Bile salt export pump

>  <target_organism>  (275) 
Homo sapiens

$$$$
CHEMBL1200930
     RDKit          2D

 26 27  0  0  0  0  0  0  0  0999 V2000
    3.8971  -16.3573    0.0000 C   0  0  0  0  0  0  0  0  0  0  0  0
    3.8971  -14.8573    0.0000 O   0  0  0  0  0  0  0  0  0  0  0  0
    2.5981  -14.1073    0.0000 C   0  0  0  0  0  0  0  0  0  0  0  0
    2.5981  -12.6073    0.0000 C   0  0  0  0  0  0  0  0  0  0  0  0
    1.2990  -11.8573    0.0000 C   0  0  0  0  0  0  0  0  0  0  0  0
    1.2990  -10.3573    0.0000 O   0  0  0  0  0  0  0  0  0  0  0  0
   -0.0000   -9.6073    0.0000 C   0  0  0  0  0  0  0  0  0  0  0  0
   -1.2990  -10.3573    0.0000 C   0  0  0  0  0  0  0  0  0  0  0  0
   -2.5981   -9.6073    0.0000 C   0  0  0  0  0  0  0  0  0  0  0  0
   -2.5981   -8.1073    0.0000 N   0  0  0  0  0  0  0  0  0  0  0  0
   -1.2990   -7.3573    0.0000 C   0  0  0  0  0  0  0  0  0  0  0  0
   -1.2990   -5.8573    0.0000 C   0  0  0  0  0  0  0  0  0  0  0  0
   -0.0000   -5.1073    0.0000 S   0  0  0  0  0  3  0  0  0  0  0  0
    1.2990   -5.8573    0.0000 O   0  0  0  0  0  1  0  0  0  0  0  0
   -0.0000   -3.6073    0.0000 C   0  0  0  0  0  0  0  0  0  0  0  0
    1.2135   -2.7256    0.0000 N   0  0  0  0  0  0  0  0  0  0  0  0
    0.7500   -1.2990    0.0000 C   0  0  0  0  0  0  0  0  0  0  0  0
    1.5000    0.0000    0.0000 C   0  0  0  0  0  0  0  0  0  0  0  0
    0.7500    1.2990    0.0000 C   0  0  0  0  0  0  0  0  0  0  0  0
   -0.7500    1.2990    0.0000 C   0  0  0  0  0  0  0  0  0  0  0  0
   -1.5000    0.0000    0.0000 C   0  0  0  0  0  0  0  0  0  0  0  0
   -0.7500   -1.2990    0.0000 C   0  0  0  0  0  0  0  0  0  0  0  0
   -1.2135   -2.7256    0.0000 N   0  0  0  0  0  2  0  0  0  0  0  0
   -0.0000   -8.1073    0.0000 C   0  0  0  0  0  0  0  0  0  0  0  0
    1.2990   -7.3573    0.0000 C   0  0  0  0  0  0  0  0  0  0  0  0
    4.8971    0.0000    0.0000 Na  0  0  0  0  0 15  0  0  0  0  0  0
  1  2  1  0
  2  3  1  0
  3  4  1  0
  4  5  1  0
  5  6  1  0
  6  7  1  0
  7  8  2  0
  8  9  1  0
  9 10  2  0
 10 11  1  0
 11 12  1  0
 12 13  1  0
 13 14  1  0
 13 15  1  0
 15 16  2  0
 16 17  1  0
 17 18  2  0
 18 19  1  0
 19 20  2  0
 20 21  1  0
 21 22  2  0
 22 23  1  0
 11 24  2  0
 24 25  1  0
 24  7  1  0
 23 15  1  0
 22 17  1  0
M  CHG  4  13   1  14  -1  23  -1  26   1
M  END
>  <assay_description>  (276) 
Inhibition of human BSEP overexpressed in Sf9 cell membrane vesicles assessed as uptake of [3H]-taurocholate in presence of ATP measured after 15 to 20 mins by membrane vesicle transport assay

>  <molecule_pref_name>  (276) 
RABEPRAZOLE SODIUM

>  <canonical_smiles>  (276) 
COCCCOc1ccnc(C[S+]([O-])c2nc3ccccc3[n-]2)c1C.[Na+]

>  <pchembl_value>  (276) 
4.47

>  <standard_type>  (276) 
IC50

>  <standard_relation>  (276) 
=

>  <standard_value>  (276) 
33900.0

>  <standard_units>  (276) 
nM

>  <target_pref_name>  (276) 
Bile salt export pump

>  <target_organism>  (276) 
Homo sapiens

$$$$
CHEMBL1200788
     RDKit          2D

 33 34  0  0  0  0  0  0  0  0999 V2000
    3.7500   -1.2990    0.0000 C   0  0  0  0  0  0  0  0  0  0  0  0
    3.0000    0.0000    0.0000 O   0  0  0  0  0  0  0  0  0  0  0  0
    1.5000    0.0000    0.0000 C   0  0  0  0  0  0  0  0  0  0  0  0
    0.7500   -1.2990    0.0000 C   0  0  0  0  0  0  0  0  0  0  0  0
   -0.7500   -1.2990    0.0000 C   0  0  0  0  0  0  0  0  0  0  0  0
   -1.5000   -2.5981    0.0000 N   0  0  0  0  0  0  0  0  0  0  0  0
   -1.5000    0.0000    0.0000 C   0  0  0  0  0  0  0  0  0  0  0  0
   -3.0000    0.0000    0.0000 Cl  0  0  0  0  0  0  0  0  0  0  0  0
   -0.7500    1.2990    0.0000 C   0  0  0  0  0  0  0  0  0  0  0  0
    0.7500    1.2990    0.0000 C   0  0  0  0  0  0  0  0  0  0  0  0
    1.5000    2.5981    0.0000 C   0  0  0  0  0  0  0  0  0  0  0  0
    0.7500    3.8971    0.0000 O   0  0  0  0  0  0  0  0  0  0  0  0
    3.0000    2.5981    0.0000 N   0  0  0  0  0  0  0  0  0  0  0  0
    3.7500    3.8971    0.0000 C   0  0  0  0  0  0  0  0  0  0  0  0
    5.2500    3.8971    0.0000 C   0  0  0  0  0  0  0  0  0  0  0  0
    6.0000    5.1962    0.0000 C   0  0  0  0  0  0  0  0  0  0  0  0
    5.2500    6.4952    0.0000 N   0  0  0  0  0  0  0  0  0  0  0  0
    6.0000    7.7942    0.0000 C   0  0  0  0  0  0  0  0  0  0  0  0
    7.5000    7.7942    0.0000 C   0  0  0  0  0  0  0  0  0  0  0  0
    8.2500    9.0933    0.0000 C   0  0  0  0  0  0  0  0  0  0  0  0
    9.7500    9.0933    0.0000 O   0  0  0  0  0  0  0  0  0  0  0  0
   10.5000   10.3923    0.0000 C   0  0  0  0  0  0  0  0  0  0  0  0
   12.0000   10.3923    0.0000 C   0  0  0  0  0  0  0  0  0  0  0  0
   12.7500   11.6913    0.0000 C   0  0  0  0  0  0  0  0  0  0  0  0
   12.0000   12.9904    0.0000 C   0  0  0  0  0  0  0  0  0  0  0  0
   12.7500   14.2894    0.0000 F   0  0  0  0  0  0  0  0  0  0  0  0
   10.5000   12.9904    0.0000 C   0  0  0  0  0  0  0  0  0  0  0  0
    9.7500   11.6913    0.0000 C   0  0  0  0  0  0  0  0  0  0  0  0
    3.7500    6.4952    0.0000 C   0  0  0  0  0  0  0  0  0  0  0  0
    3.0000    5.1962    0.0000 C   0  0  0  0  0  0  0  0  0  0  0  0
    1.5000    5.1962    0.0000 O   0  0  0  0  0  0  0  0  0  0  0  0
    0.7500    6.4952    0.0000 C   0  0  0  0  0  0  0  0  0  0  0  0
   13.7500    0.0000    0.0000 O   0  0  0  0  0  0  0  0  0  0  0  0
  1  2  1  0
  2  3  1  0
  3  4  2  0
  4  5  1  0
  5  6  1  0
  5  7  2  0
  7  8  1  0
  7  9  1  0
  9 10  2  0
 10 11  1  0
 11 12  2  0
 11 13  1  0
 13 14  1  0
 14 15  1  0
 15 16  1  0
 16 17  1  0
 17 18  1  0
 18 19  1  0
 19 20  1  0
 20 21  1  0
 21 22  1  0
 22 23  2  0
 23 24  1  0
 24 25  2  0
 25 26  1  0
 25 27  1  0
 27 28  2  0
 17 29  1  0
 29 30  1  0
 30 31  1  0
 31 32  1  0
 10  3  1  0
 30 14  1  0
 28 22  1  0
M  END
>  <assay_description>  (277) 
Inhibition of human BSEP overexpressed in Sf9 cell membrane vesicles assessed as uptake of [3H]-taurocholate in presence of ATP measured after 15 to 20 mins by membrane vesicle transport assay

>  <molecule_pref_name>  (277) 
CISAPRIDE

>  <canonical_smiles>  (277) 
COc1cc(N)c(Cl)cc1C(=O)NC1CCN(CCCOc2ccc(F)cc2)CC1OC.O

>  <pchembl_value>  (277) 
4.66

>  <standard_type>  (277) 
IC50

>  <standard_relation>  (277) 
=

>  <standard_value>  (277) 
22000.0

>  <standard_units>  (277) 
nM

>  <target_pref_name>  (277) 
Bile salt export pump

>  <target_organism>  (277) 
Homo sapiens

$$$$
CHEMBL344159
     RDKit          2D

 32 35  0  0  0  0  0  0  0  0999 V2000
   -7.8068   -9.0693    0.0000 C   0  0  0  0  0  0  0  0  0  0  0  0
   -9.2692   -8.7355    0.0000 C   0  0  0  0  0  0  0  0  0  0  0  0
  -10.2894   -9.8350    0.0000 C   0  0  0  0  0  0  0  0  0  0  0  0
  -11.7518   -9.5013    0.0000 C   0  0  0  0  0  0  0  0  0  0  0  0
  -12.1940   -8.0679    0.0000 C   0  0  0  0  0  0  0  0  0  0  0  0
  -11.1737   -6.9683    0.0000 C   0  0  0  0  0  0  0  0  0  0  0  0
   -9.7113   -7.3021    0.0000 C   0  0  0  0  0  0  0  0  0  0  0  0
   -8.6911   -6.2025    0.0000 C   0  0  0  0  0  0  0  0  0  0  0  0
   -9.1332   -4.7692    0.0000 O   0  0  0  0  0  0  0  0  0  0  0  0
   -7.2287   -6.5363    0.0000 N   0  0  0  0  0  0  0  0  0  0  0  0
   -6.2084   -5.4367    0.0000 C   0  0  0  0  0  0  0  0  0  0  0  0
   -4.7460   -5.7705    0.0000 C   0  0  0  0  0  0  0  0  0  0  0  0
   -3.7258   -4.6709    0.0000 C   0  0  0  0  0  0  0  0  0  0  0  0
   -4.1679   -3.2376    0.0000 C   0  0  0  0  0  0  0  0  0  0  0  0
   -3.1476   -2.1380    0.0000 C   0  0  0  0  0  0  0  0  0  0  0  0
   -3.5898   -0.7046    0.0000 O   0  0  0  0  0  0  0  0  0  0  0  0
   -1.6852   -2.4718    0.0000 N   0  0  0  0  0  0  0  0  0  0  0  0
   -1.3515   -3.9342    0.0000 C   0  0  0  0  0  0  0  0  0  0  0  0
   -0.0000   -4.5850    0.0000 C   0  0  0  0  0  0  0  0  0  0  0  0
    1.3515   -3.9342    0.0000 C   0  0  0  0  0  0  0  0  0  0  0  0
    1.6852   -2.4718    0.0000 C   0  0  0  0  0  0  0  0  0  0  0  0
    3.1476   -2.1380    0.0000 O   0  0  0  0  0  0  0  0  0  0  0  0
    0.7500   -1.2990    0.0000 C   0  0  0  0  0  0  0  0  0  0  0  0
    1.5000    0.0000    0.0000 C   0  0  0  0  0  0  0  0  0  0  0  0
    0.7500    1.2990    0.0000 C   0  0  0  0  0  0  0  0  0  0  0  0
    1.5000    2.5981    0.0000 Cl  0  0  0  0  0  0  0  0  0  0  0  0
   -0.7500    1.2990    0.0000 C   0  0  0  0  0  0  0  0  0  0  0  0
   -1.5000    0.0000    0.0000 C   0  0  0  0  0  0  0  0  0  0  0  0
   -0.7500   -1.2990    0.0000 C   0  0  0  0  0  0  0  0  0  0  0  0
   -5.6303   -2.9038    0.0000 C   0  0  0  0  0  0  0  0  0  0  0  0
   -6.0724   -1.4704    0.0000 C   0  0  0  0  0  0  0  0  0  0  0  0
   -6.6505   -4.0034    0.0000 C   0  0  0  0  0  0  0  0  0  0  0  0
  1  2  1  0
  2  3  2  0
  3  4  1  0
  4  5  2  0
  5  6  1  0
  6  7  2  0
  7  8  1  0
  8  9  2  0
  8 10  1  0
 10 11  1  0
 11 12  2  0
 12 13  1  0
 13 14  2  0
 14 15  1  0
 15 16  2  0
 15 17  1  0
 17 18  1  0
 18 19  1  0
 19 20  1  0
 20 21  1  0
 21 22  1  0
 21 23  1  0
 23 24  2  0
 24 25  1  0
 25 26  1  0
 25 27  2  0
 27 28  1  0
 28 29  2  0
 14 30  1  0
 30 31  1  0
 30 32  2  0
  7  2  1  0
 32 11  1  0
 29 17  1  0
 29 23  1  0
M  END
>  <assay_description>  (278) 
Inhibition of human BSEP overexpressed in Sf9 cell membrane vesicles assessed as uptake of [3H]-taurocholate in presence of ATP measured after 15 to 20 mins by membrane vesicle transport assay

>  <molecule_pref_name>  (278) 
TOLVAPTAN

>  <canonical_smiles>  (278) 
Cc1ccccc1C(=O)Nc1ccc(C(=O)N2CCCC(O)c3cc(Cl)ccc32)c(C)c1

>  <pchembl_value>  (278) 
5.00

>  <standard_type>  (278) 
IC50

>  <standard_relation>  (278) 
=

>  <standard_value>  (278) 
9990.0

>  <standard_units>  (278) 
nM

>  <target_pref_name>  (278) 
Bile salt export pump

>  <target_organism>  (278) 
Homo sapiens

$$$$
CHEMBL957
     RDKit          2D

 39 42  0  0  0  0  0  0  0  0999 V2000
    3.7500   -1.2990    0.0000 C   0  0  0  0  0  0  0  0  0  0  0  0
    3.0000    0.0000    0.0000 O   0  0  0  0  0  0  0  0  0  0  0  0
    1.5000    0.0000    0.0000 C   0  0  0  0  0  0  0  0  0  0  0  0
    0.7500   -1.2990    0.0000 C   0  0  0  0  0  0  0  0  0  0  0  0
   -0.7500   -1.2990    0.0000 C   0  0  0  0  0  0  0  0  0  0  0  0
   -1.5000    0.0000    0.0000 C   0  0  0  0  0  0  0  0  0  0  0  0
   -0.7500    1.2990    0.0000 C   0  0  0  0  0  0  0  0  0  0  0  0
    0.7500    1.2990    0.0000 C   0  0  0  0  0  0  0  0  0  0  0  0
    1.5000    2.5981    0.0000 O   0  0  0  0  0  0  0  0  0  0  0  0
    0.7500    3.8971    0.0000 C   0  0  0  0  0  0  0  0  0  0  0  0
    1.5000    5.1962    0.0000 C   0  0  0  0  0  0  0  0  0  0  0  0
    3.0000    5.1962    0.0000 N   0  0  0  0  0  0  0  0  0  0  0  0
    3.7500    6.4952    0.0000 S   0  0  0  0  0  0  0  0  0  0  0  0
    2.4510    7.2452    0.0000 O   0  0  0  0  0  0  0  0  0  0  0  0
    5.0490    5.7452    0.0000 O   0  0  0  0  0  0  0  0  0  0  0  0
    4.5000    7.7942    0.0000 C   0  0  0  0  0  0  0  0  0  0  0  0
    6.0000    7.7942    0.0000 C   0  0  0  0  0  0  0  0  0  0  0  0
    6.7500    9.0933    0.0000 C   0  0  0  0  0  0  0  0  0  0  0  0
    6.0000   10.3923    0.0000 C   0  0  0  0  0  0  0  0  0  0  0  0
    6.7500   11.6913    0.0000 C   0  0  0  0  0  0  0  0  0  0  0  0
    8.0490   10.9413    0.0000 C   0  0  0  0  0  0  0  0  0  0  0  0
    5.4510   12.4413    0.0000 C   0  0  0  0  0  0  0  0  0  0  0  0
    7.5000   12.9904    0.0000 C   0  0  0  0  0  0  0  0  0  0  0  0
    4.5000   10.3923    0.0000 C   0  0  0  0  0  0  0  0  0  0  0  0
    3.7500    9.0933    0.0000 C   0  0  0  0  0  0  0  0  0  0  0  0
    0.7500    6.4952    0.0000 N   0  0  0  0  0  0  0  0  0  0  0  0
   -0.7500    6.4952    0.0000 C   0  0  0  0  0  0  0  0  0  0  0  0
   -1.5000    7.7942    0.0000 C   0  0  0  0  0  0  0  0  0  0  0  0
   -0.7500    9.0933    0.0000 N   0  0  0  0  0  0  0  0  0  0  0  0
   -1.5000   10.3923    0.0000 C   0  0  0  0  0  0  0  0  0  0  0  0
   -3.0000   10.3923    0.0000 C   0  0  0  0  0  0  0  0  0  0  0  0
   -3.7500    9.0933    0.0000 C   0  0  0  0  0  0  0  0  0  0  0  0
   -3.0000    7.7942    0.0000 N   0  0  0  0  0  0  0  0  0  0  0  0
   -1.5000    5.1962    0.0000 N   0  0  0  0  0  0  0  0  0  0  0  0
   -0.7500    3.8971    0.0000 C   0  0  0  0  0  0  0  0  0  0  0  0
   -1.5000    2.5981    0.0000 O   0  0  0  0  0  0  0  0  0  0  0  0
   -3.0000    2.5981    0.0000 C   0  0  0  0  0  0  0  0  0  0  0  0
   -3.7500    1.2990    0.0000 C   0  0  0  0  0  0  0  0  0  0  0  0
   -5.2500    1.2990    0.0000 O   0  0  0  0  0  0  0  0  0  0  0  0
  1  2  1  0
  2  3  1  0
  3  4  2  0
  4  5  1  0
  5  6  2  0
  6  7  1  0
  7  8  2  0
  8  9  1  0
  9 10  1  0
 10 11  1  0
 11 12  1  0
 12 13  1  0
 13 14  2  0
 13 15  2  0
 13 16  1  0
 16 17  2  0
 17 18  1  0
 18 19  2  0
 19 20  1  0
 20 21  1  0
 20 22  1  0
 20 23  1  0
 19 24  1  0
 24 25  2  0
 11 26  2  0
 26 27  1  0
 27 28  1  0
 28 29  2  0
 29 30  1  0
 30 31  2  0
 31 32  1  0
 32 33  2  0
 27 34  2  0
 34 35  1  0
 35 36  1  0
 36 37  1  0
 37 38  1  0
 38 39  1  0
  8  3  1  0
 35 10  2  0
 25 16  1  0
 33 28  1  0
M  END
>  <assay_description>  (279) 
Inhibition of human BSEP overexpressed in Sf9 cell membrane vesicles assessed as uptake of [3H]-taurocholate in presence of ATP measured after 15 to 20 mins by membrane vesicle transport assay

>  <molecule_pref_name>  (279) 
BOSENTAN

>  <canonical_smiles>  (279) 
COc1ccccc1Oc1c(NS(=O)(=O)c2ccc(C(C)(C)C)cc2)nc(-c2ncccn2)nc1OCCO

>  <pchembl_value>  (279) 
4.64

>  <standard_type>  (279) 
IC50

>  <standard_relation>  (279) 
=

>  <standard_value>  (279) 
23000.0

>  <standard_units>  (279) 
nM

>  <target_pref_name>  (279) 
Bile salt export pump

>  <target_organism>  (279) 
Homo sapiens

$$$$
CHEMBL1200692
     RDKit          2D

 41 45  0  0  0  0  0  0  0  0999 V2000
   -4.2164   -2.1363    0.0000 C   0  0  0  0  0  0  0  0  0  0  0  0
   -3.2127   -3.2511    0.0000 C   0  0  0  0  0  0  0  0  0  0  0  0
   -1.7455   -2.9392    0.0000 C   0  0  0  0  0  0  0  0  0  0  0  0
   -0.7418   -4.0539    0.0000 C   0  0  0  0  0  0  0  0  0  0  0  0
   -1.0537   -5.5211    0.0000 N   0  0  0  0  0  0  0  0  0  0  0  0
    0.2454   -6.2711    0.0000 C   0  0  0  0  0  0  0  0  0  0  0  0
    0.4022   -7.7629    0.0000 C   0  0  0  0  0  0  0  0  0  0  0  0
    1.8940   -7.6061    0.0000 C   0  0  0  0  0  0  0  0  0  0  0  0
   -1.0896   -7.9197    0.0000 C   0  0  0  0  0  0  0  0  0  0  0  0
    0.5590   -9.2547    0.0000 O   0  0  0  0  0  0  0  0  0  0  0  0
    1.3601   -5.2674    0.0000 C   0  0  0  0  0  0  0  0  0  0  0  0
    2.8273   -5.5793    0.0000 C   0  0  0  0  0  0  0  0  0  0  0  0
    3.8310   -4.4646    0.0000 O   0  0  0  0  0  0  0  0  0  0  0  0
    3.2909   -7.0059    0.0000 O   0  0  0  0  0  0  0  0  0  0  0  0
    4.7581   -7.3178    0.0000 C   0  0  0  0  0  0  0  0  0  0  0  0
    5.2216   -8.7443    0.0000 C   0  0  0  0  0  0  0  0  0  0  0  0
    6.6482   -9.2079    0.0000 O   0  0  0  0  0  0  0  0  0  0  0  0
    6.6482  -10.7079    0.0000 C   0  0  0  0  0  0  0  0  0  0  0  0
    7.8617  -11.5895    0.0000 O   0  0  0  0  0  0  0  0  0  0  0  0
    5.2216  -11.1714    0.0000 O   0  0  0  0  0  0  0  0  0  0  0  0
    4.3399   -9.9579    0.0000 C   0  0  0  0  0  0  0  0  0  0  0  0
    2.8399   -9.9579    0.0000 C   0  0  0  0  0  0  0  0  0  0  0  0
    0.7500   -3.8971    0.0000 N   0  0  0  0  0  0  0  0  0  0  0  0
    1.5000   -2.5981    0.0000 C   0  0  0  0  0  0  0  0  0  0  0  0
    0.7500   -1.2990    0.0000 C   0  0  0  0  0  0  0  0  0  0  0  0
    1.5000    0.0000    0.0000 C   0  0  0  0  0  0  0  0  0  0  0  0
    0.7500    1.2990    0.0000 C   0  0  0  0  0  0  0  0  0  0  0  0
   -0.7500    1.2990    0.0000 C   0  0  0  0  0  0  0  0  0  0  0  0
   -1.5000    2.5981    0.0000 C   0  0  0  0  0  0  0  0  0  0  0  0
   -0.7500    3.8971    0.0000 C   0  0  0  0  0  0  0  0  0  0  0  0
   -1.5000    5.1962    0.0000 C   0  0  0  0  0  0  0  0  0  0  0  0
   -3.0000    5.1962    0.0000 C   0  0  0  0  0  0  0  0  0  0  0  0
   -3.7500    3.8971    0.0000 C   0  0  0  0  0  0  0  0  0  0  0  0
   -3.0000    2.5981    0.0000 C   0  0  0  0  0  0  0  0  0  0  0  0
   -3.7500    1.2990    0.0000 C   0  0  0  0  0  0  0  0  0  0  0  0
   -3.1399   -0.0713    0.0000 N   0  0  0  0  0  0  0  0  0  0  0  0
   -4.2546   -1.0750    0.0000 N   0  0  0  0  0  0  0  0  0  0  0  0
   -5.5537   -0.3250    0.0000 N   0  0  0  0  0  0  0  0  0  0  0  0
   -5.2418    1.1422    0.0000 N   0  0  0  0  0  0  0  0  0  0  0  0
   -1.5000    0.0000    0.0000 C   0  0  0  0  0  0  0  0  0  0  0  0
   -0.7500   -1.2990    0.0000 C   0  0  0  0  0  0  0  0  0  0  0  0
  1  2  1  0
  2  3  1  0
  3  4  1  0
  4  5  2  0
  5  6  1  0
  6  7  1  0
  7  8  1  0
  7  9  1  0
  7 10  1  0
  6 11  2  0
 11 12  1  0
 12 13  2  0
 12 14  1  0
 14 15  1  0
 15 16  1  0
 16 17  1  0
 17 18  1  0
 18 19  2  0
 18 20  1  0
 20 21  1  0
 21 22  1  0
 11 23  1  0
 23 24  1  0
 24 25  1  0
 25 26  2  0
 26 27  1  0
 27 28  2  0
 28 29  1  0
 29 30  2  0
 30 31  1  0
 31 32  2  0
 32 33  1  0
 33 34  2  0
 34 35  1  0
 35 36  2  0
 36 37  1  0
 37 38  2  0
 38 39  1  0
 28 40  1  0
 40 41  2  0
 23  4  1  0
 41 25  1  0
 21 16  2  0
 34 29  1  0
 39 35  1  0
M  END
>  <assay_description>  (280) 
Inhibition of human BSEP overexpressed in Sf9 cell membrane vesicles assessed as uptake of [3H]-taurocholate in presence of ATP measured after 15 to 20 mins by membrane vesicle transport assay

>  <molecule_pref_name>  (280) 
OLMESARTAN MEDOXOMIL

>  <canonical_smiles>  (280) 
CCCc1nc(C(C)(C)O)c(C(=O)OCc2oc(=O)oc2C)n1Cc1ccc(-c2ccccc2-c2nnn[nH]2)cc1

>  <pchembl_value>  (280) 
5.33

>  <standard_type>  (280) 
IC50

>  <standard_relation>  (280) 
=

>  <standard_value>  (280) 
4730.0

>  <standard_units>  (280) 
nM

>  <target_pref_name>  (280) 
Bile salt export pump

>  <target_organism>  (280) 
Homo sapiens

$$$$
CHEMBL1201139
     RDKit          2D

 28 31  0  0  0  0  0  0  0  0999 V2000
   -7.4177   -6.2842    0.0000 C   0  0  0  0  0  0  0  0  0  0  0  0
   -6.0474   -6.8943    0.0000 C   0  0  0  0  0  0  0  0  0  0  0  0
   -6.0646   -7.8783    0.0000 O   0  0  0  0  0  0  0  0  0  0  0  0
   -4.8338   -6.0126    0.0000 O   0  0  0  0  0  0  0  0  0  0  0  0
   -3.4635   -6.6227    0.0000 C   0  0  0  0  0  0  0  0  0  0  0  0
   -4.2135   -7.9218    0.0000 C   0  0  0  0  0  0  0  0  0  0  0  0
   -5.1903   -8.0417    0.0000 C   0  0  0  0  0  0  0  0  0  0  0  0
   -3.4635   -9.2208    0.0000 O   0  0  0  0  0  0  0  0  0  0  0  0
   -2.2500   -7.5044    0.0000 C   0  0  0  0  0  0  0  0  0  0  0  0
   -1.0365   -6.6227    0.0000 C   0  0  0  0  0  0  0  0  0  0  0  0
   -1.5000   -5.1962    0.0000 C   0  0  0  0  0  0  0  0  0  0  0  0
   -0.7500   -3.8971    0.0000 C   0  0  0  0  0  0  0  0  0  0  0  0
    0.7500   -3.8971    0.0000 C   0  0  0  0  0  0  0  0  0  0  0  0
    1.5000   -2.5981    0.0000 C   0  0  0  0  0  0  0  0  0  0  0  0
    3.0000   -2.5981    0.0000 C   0  0  0  0  0  0  0  0  0  0  0  0
    0.7500   -1.2990    0.0000 C   0  0  0  0  0  0  0  0  0  0  0  0
    1.5000    0.0000    0.0000 C   0  0  0  0  0  0  0  0  0  0  0  0
    0.7500    1.2990    0.0000 C   0  0  0  0  0  0  0  0  0  0  0  0
    1.5000    2.5981    0.0000 O   0  0  0  0  0  0  0  0  0  0  0  0
   -0.7500    1.2990    0.0000 C   0  0  0  0  0  0  0  0  0  0  0  0
   -1.5000    0.0000    0.0000 C   0  0  0  0  0  0  0  0  0  0  0  0
   -0.7500   -1.2990    0.0000 C   0  0  0  0  0  0  0  0  0  0  0  0
   -2.2500   -1.2990    0.0000 C   0  0  0  0  0  0  0  0  0  0  0  0
   -1.5000   -2.5981    0.0000 C   0  0  0  0  0  0  0  0  0  0  0  0
   -3.0000   -2.5981    0.0000 C   0  0  0  0  0  0  0  0  0  0  0  0
   -3.7500   -3.8971    0.0000 C   0  0  0  0  0  0  0  0  0  0  0  0
   -3.0000   -5.1962    0.0000 C   0  0  0  0  0  0  0  0  0  0  0  0
   -4.4854   -4.9873    0.0000 C   0  0  0  0  0  0  0  0  0  0  0  0
  1  2  1  0
  2  3  2  0
  2  4  1  0
  5  4  1  1
  5  6  1  0
  6  7  1  0
  6  8  2  0
  5  9  1  0
  9 10  1  0
 11 10  1  6
 11 12  1  0
 12 13  1  1
 13 14  2  0
 14 15  1  0
 14 16  1  0
 16 17  2  0
 17 18  1  0
 18 19  2  0
 18 20  1  0
 20 21  1  0
 21 22  1  0
 22 23  1  6
 22 24  1  0
 24 25  1  6
 25 26  1  0
 26 27  1  0
 27 28  1  6
 27  5  1  0
 27 11  1  0
 24 12  1  0
 22 16  1  0
M  END
>  <assay_description>  (281) 
Inhibition of human BSEP overexpressed in Sf9 cell membrane vesicles assessed as uptake of [3H]-taurocholate in presence of ATP measured after 15 to 20 mins by membrane vesicle transport assay

>  <molecule_pref_name>  (281) 
MEGESTROL ACETATE

>  <canonical_smiles>  (281) 
CC(=O)O[C@]1(C(C)=O)CC[C@H]2[C@@H]3C=C(C)C4=CC(=O)CC[C@]4(C)[C@H]3CC[C@@]21C

>  <pchembl_value>  (281) 
4.75

>  <standard_type>  (281) 
IC50

>  <standard_relation>  (281) 
=

>  <standard_value>  (281) 
17800.0

>  <standard_units>  (281) 
nM

>  <target_pref_name>  (281) 
Bile salt export pump

>  <target_organism>  (281) 
Homo sapiens

$$$$
CHEMBL976
     RDKit          2D

 23 26  0  0  0  0  0  0  0  0999 V2000
   -6.0000   -5.1962    0.0000 O   0  0  0  0  0  0  0  0  0  0  0  0
   -5.2500   -3.8971    0.0000 C   0  0  0  0  0  0  0  0  0  0  0  0
   -6.0000   -2.5981    0.0000 C   0  0  0  0  0  0  0  0  0  0  0  0
   -5.2500   -1.2990    0.0000 C   0  0  0  0  0  0  0  0  0  0  0  0
   -6.0000    0.0000    0.0000 C   0  0  0  0  0  0  0  0  0  0  0  0
   -7.5000    0.0000    0.0000 C   0  0  0  0  0  0  0  0  0  0  0  0
   -8.2500   -1.2990    0.0000 C   0  0  0  0  0  0  0  0  0  0  0  0
   -7.5000   -2.5981    0.0000 C   0  0  0  0  0  0  0  0  0  0  0  0
   -3.7500   -3.8971    0.0000 N   0  0  0  0  0  0  0  0  0  0  0  0
   -3.0000   -5.1962    0.0000 C   0  0  0  0  0  0  0  0  0  0  0  0
   -1.5000   -5.1962    0.0000 C   0  0  0  0  0  0  0  0  0  0  0  0
   -0.7500   -6.4952    0.0000 O   0  0  0  0  0  0  0  0  0  0  0  0
   -0.7500   -3.8971    0.0000 N   0  0  0  0  0  0  0  0  0  0  0  0
    0.7500   -3.8971    0.0000 C   0  0  0  0  0  0  0  0  0  0  0  0
    1.5000   -2.5981    0.0000 C   0  0  0  0  0  0  0  0  0  0  0  0
    0.7500   -1.2990    0.0000 C   0  0  0  0  0  0  0  0  0  0  0  0
    1.5000    0.0000    0.0000 C   0  0  0  0  0  0  0  0  0  0  0  0
    0.7500    1.2990    0.0000 C   0  0  0  0  0  0  0  0  0  0  0  0
   -0.7500    1.2990    0.0000 C   0  0  0  0  0  0  0  0  0  0  0  0
   -1.5000    0.0000    0.0000 C   0  0  0  0  0  0  0  0  0  0  0  0
   -0.7500   -1.2990    0.0000 C   0  0  0  0  0  0  0  0  0  0  0  0
   -1.5000   -2.5981    0.0000 C   0  0  0  0  0  0  0  0  0  0  0  0
   -3.0000   -2.5981    0.0000 C   0  0  0  0  0  0  0  0  0  0  0  0
  1  2  2  0
  2  3  1  0
  3  4  1  0
  4  5  1  0
  5  6  1  0
  6  7  1  0
  7  8  1  0
  2  9  1  0
  9 10  1  0
 10 11  1  0
 11 12  2  0
 11 13  1  0
 13 14  1  0
 14 15  1  0
 15 16  1  0
 16 17  2  0
 17 18  1  0
 18 19  2  0
 19 20  1  0
 20 21  2  0
 21 22  1  0
 22 23  1  0
  8  3  1  0
 23  9  1  0
 22 13  1  0
 21 16  1  0
M  END
>  <assay_description>  (282) 
Inhibition of human BSEP overexpressed in Sf9 cell membrane vesicles assessed as uptake of [3H]-taurocholate in presence of ATP measured after 15 to 20 mins by membrane vesicle transport assay

>  <molecule_pref_name>  (282) 
PRAZIQUANTEL

>  <canonical_smiles>  (282) 
O=C(C1CCCCC1)N1CC(=O)N2CCc3ccccc3C2C1

>  <pchembl_value>  (282) 
4.17

>  <standard_type>  (282) 
IC50

>  <standard_relation>  (282) 
=

>  <standard_value>  (282) 
67100.0

>  <standard_units>  (282) 
nM

>  <target_pref_name>  (282) 
Bile salt export pump

>  <target_organism>  (282) 
Homo sapiens

$$$$
CHEMBL623
     RDKit          2D

 33 36  0  0  0  0  0  0  0  0999 V2000
   -0.8113  -11.2427    0.0000 C   0  0  0  0  0  0  0  0  0  0  0  0
    0.4022  -10.3610    0.0000 C   0  0  0  0  0  0  0  0  0  0  0  0
    0.2454   -8.8692    0.0000 C   0  0  0  0  0  0  0  0  0  0  0  0
    1.3601   -7.8655    0.0000 N   0  0  0  0  0  0  0  0  0  0  0  0
    0.7500   -6.4952    0.0000 N   0  0  0  0  0  0  0  0  0  0  0  0
    1.5000   -5.1962    0.0000 C   0  0  0  0  0  0  0  0  0  0  0  0
    0.7500   -3.8971    0.0000 C   0  0  0  0  0  0  0  0  0  0  0  0
    1.5000   -2.5981    0.0000 C   0  0  0  0  0  0  0  0  0  0  0  0
    0.7500   -1.2990    0.0000 N   0  0  0  0  0  0  0  0  0  0  0  0
    1.5000    0.0000    0.0000 C   0  0  0  0  0  0  0  0  0  0  0  0
    0.7500    1.2990    0.0000 C   0  0  0  0  0  0  0  0  0  0  0  0
   -0.7500    1.2990    0.0000 N   0  0  0  0  0  0  0  0  0  0  0  0
   -1.5000    2.5981    0.0000 C   0  0  0  0  0  0  0  0  0  0  0  0
   -0.7500    3.8971    0.0000 C   0  0  0  0  0  0  0  0  0  0  0  0
   -1.5000    5.1962    0.0000 C   0  0  0  0  0  0  0  0  0  0  0  0
   -3.0000    5.1962    0.0000 C   0  0  0  0  0  0  0  0  0  0  0  0
   -3.7500    3.8971    0.0000 C   0  0  0  0  0  0  0  0  0  0  0  0
   -5.2500    3.8971    0.0000 Cl  0  0  0  0  0  0  0  0  0  0  0  0
   -3.0000    2.5981    0.0000 C   0  0  0  0  0  0  0  0  0  0  0  0
   -1.5000    0.0000    0.0000 C   0  0  0  0  0  0  0  0  0  0  0  0
   -0.7500   -1.2990    0.0000 C   0  0  0  0  0  0  0  0  0  0  0  0
   -0.7418   -6.6520    0.0000 C   0  0  0  0  0  0  0  0  0  0  0  0
   -1.7455   -5.5373    0.0000 O   0  0  0  0  0  0  0  0  0  0  0  0
   -1.0537   -8.1192    0.0000 N   0  0  0  0  0  0  0  0  0  0  0  0
   -2.4240   -8.7293    0.0000 C   0  0  0  0  0  0  0  0  0  0  0  0
   -3.6375   -7.8476    0.0000 C   0  0  0  0  0  0  0  0  0  0  0  0
   -5.0078   -8.4577    0.0000 O   0  0  0  0  0  0  0  0  0  0  0  0
   -6.2213   -7.5761    0.0000 C   0  0  0  0  0  0  0  0  0  0  0  0
   -6.0645   -6.0843    0.0000 C   0  0  0  0  0  0  0  0  0  0  0  0
   -7.2781   -5.2026    0.0000 C   0  0  0  0  0  0  0  0  0  0  0  0
   -8.6484   -5.8127    0.0000 C   0  0  0  0  0  0  0  0  0  0  0  0
   -8.8052   -7.3045    0.0000 C   0  0  0  0  0  0  0  0  0  0  0  0
   -7.5917   -8.1862    0.0000 C   0  0  0  0  0  0  0  0  0  0  0  0
  1  2  1  0
  2  3  1  0
  3  4  2  0
  4  5  1  0
  5  6  1  0
  6  7  1  0
  7  8  1  0
  8  9  1  0
  9 10  1  0
 10 11  1  0
 11 12  1  0
 12 13  1  0
 13 14  2  0
 14 15  1  0
 15 16  2  0
 16 17  1  0
 17 18  1  0
 17 19  2  0
 12 20  1  0
 20 21  1  0
  5 22  1  0
 22 23  2  0
 22 24  1  0
 24 25  1  0
 25 26  1  0
 26 27  1  0
 27 28  1  0
 28 29  2  0
 29 30  1  0
 30 31  2  0
 31 32  1  0
 32 33  2  0
 24  3  1  0
 33 28  1  0
 21  9  1  0
 19 13  1  0
M  END
>  <assay_description>  (283) 
Inhibition of human BSEP overexpressed in Sf9 cell membrane vesicles assessed as uptake of [3H]-taurocholate in presence of ATP measured after 15 to 20 mins by membrane vesicle transport assay

>  <molecule_pref_name>  (283) 
NEFAZODONE

>  <canonical_smiles>  (283) 
CCc1nn(CCCN2CCN(c3cccc(Cl)c3)CC2)c(=O)n1CCOc1ccccc1

>  <pchembl_value>  (283) 
5.21

>  <standard_type>  (283) 
IC50

>  <standard_relation>  (283) 
=

>  <standard_value>  (283) 
6110.0

>  <standard_units>  (283) 
nM

>  <target_pref_name>  (283) 
Bile salt export pump

>  <target_organism>  (283) 
Homo sapiens

$$$$
CHEMBL388590
     RDKit          2D

 22 24  0  0  0  0  0  0  0  0999 V2000
    1.2990   -5.8573    0.0000 C   0  0  0  0  0  0  0  0  0  0  0  0
   -0.0000   -5.1073    0.0000 C   0  0  0  0  0  0  0  0  0  0  0  0
   -0.0000   -3.6073    0.0000 C   0  0  0  0  0  0  0  0  0  0  0  0
    1.2135   -2.7256    0.0000 O   0  0  0  0  0  0  0  0  0  0  0  0
    0.7500   -1.2990    0.0000 C   0  0  0  0  0  0  0  0  0  0  0  0
    1.5000    0.0000    0.0000 C   0  0  0  0  0  0  0  0  0  0  0  0
    0.7500    1.2990    0.0000 C   0  0  0  0  0  0  0  0  0  0  0  0
   -0.7500    1.2990    0.0000 C   0  0  0  0  0  0  0  0  0  0  0  0
   -1.5000    0.0000    0.0000 C   0  0  0  0  0  0  0  0  0  0  0  0
   -0.7500   -1.2990    0.0000 C   0  0  0  0  0  0  0  0  0  0  0  0
   -1.2135   -2.7256    0.0000 C   0  0  0  0  0  0  0  0  0  0  0  0
   -2.6401   -3.1891    0.0000 C   0  0  0  0  0  0  0  0  0  0  0  0
   -3.7548   -2.1855    0.0000 O   0  0  0  0  0  0  0  0  0  0  0  0
   -2.9520   -4.6564    0.0000 C   0  0  0  0  0  0  0  0  0  0  0  0
   -4.3786   -5.1199    0.0000 C   0  0  0  0  0  0  0  0  0  0  0  0
   -4.6904   -6.5871    0.0000 C   0  0  0  0  0  0  0  0  0  0  0  0
   -6.1170   -7.0506    0.0000 Br  0  0  0  0  0  0  0  0  0  0  0  0
   -3.5757   -7.5908    0.0000 C   0  0  0  0  0  0  0  0  0  0  0  0
   -3.8876   -9.0580    0.0000 O   0  0  0  0  0  0  0  0  0  0  0  0
   -2.1491   -7.1273    0.0000 C   0  0  0  0  0  0  0  0  0  0  0  0
   -1.0344   -8.1310    0.0000 Br  0  0  0  0  0  0  0  0  0  0  0  0
   -1.8373   -5.6601    0.0000 C   0  0  0  0  0  0  0  0  0  0  0  0
  1  2  1  0
  2  3  1  0
  3  4  1  0
  4  5  1  0
  5  6  2  0
  6  7  1  0
  7  8  2  0
  8  9  1  0
  9 10  2  0
 10 11  1  0
 11 12  1  0
 12 13  2  0
 12 14  1  0
 14 15  2  0
 15 16  1  0
 16 17  1  0
 16 18  2  0
 18 19  1  0
 18 20  1  0
 20 21  1  0
 20 22  2  0
 11  3  2  0
 22 14  1  0
 10  5  1  0
M  END
>  <assay_description>  (284) 
Inhibition of human BSEP overexpressed in Sf9 cell membrane vesicles assessed as uptake of [3H]-taurocholate in presence of ATP measured after 15 to 20 mins by membrane vesicle transport assay

>  <molecule_pref_name>  (284) 
BENZBROMARONE

>  <canonical_smiles>  (284) 
CCc1oc2ccccc2c1C(=O)c1cc(Br)c(O)c(Br)c1

>  <pchembl_value>  (284) 
4.76

>  <standard_type>  (284) 
IC50

>  <standard_relation>  (284) 
=

>  <standard_value>  (284) 
17500.0

>  <standard_units>  (284) 
nM

>  <target_pref_name>  (284) 
Bile salt export pump

>  <target_organism>  (284) 
Homo sapiens

$$$$
CHEMBL121
     RDKit          2D

 25 27  0  0  0  0  0  0  0  0999 V2000
    1.5000   -7.7942    0.0000 C   0  0  0  0  0  0  0  0  0  0  0  0
    0.7500   -6.4952    0.0000 N   0  0  0  0  0  0  0  0  0  0  0  0
    1.5000   -5.1962    0.0000 C   0  0  0  0  0  0  0  0  0  0  0  0
    0.7500   -3.8971    0.0000 C   0  0  0  0  0  0  0  0  0  0  0  0
    1.5000   -2.5981    0.0000 O   0  0  0  0  0  0  0  0  0  0  0  0
    0.7500   -1.2990    0.0000 C   0  0  0  0  0  0  0  0  0  0  0  0
    1.5000    0.0000    0.0000 C   0  0  0  0  0  0  0  0  0  0  0  0
    0.7500    1.2990    0.0000 C   0  0  0  0  0  0  0  0  0  0  0  0
   -0.7500    1.2990    0.0000 C   0  0  0  0  0  0  0  0  0  0  0  0
   -1.5000    2.5981    0.0000 C   0  0  0  0  0  0  0  0  0  0  0  0
   -0.7500    3.8971    0.0000 C   0  0  0  0  0  0  0  0  0  0  0  0
   -1.3601    5.2674    0.0000 S   0  0  0  0  0  0  0  0  0  0  0  0
   -0.2454    6.2711    0.0000 C   0  0  0  0  0  0  0  0  0  0  0  0
   -0.4022    7.7629    0.0000 O   0  0  0  0  0  0  0  0  0  0  0  0
    1.0537    5.5211    0.0000 N   0  0  0  0  0  0  0  0  0  0  0  0
    0.7418    4.0539    0.0000 C   0  0  0  0  0  0  0  0  0  0  0  0
    1.7455    2.9392    0.0000 O   0  0  0  0  0  0  0  0  0  0  0  0
   -1.5000    0.0000    0.0000 C   0  0  0  0  0  0  0  0  0  0  0  0
   -0.7500   -1.2990    0.0000 C   0  0  0  0  0  0  0  0  0  0  0  0
   -0.7500   -6.4952    0.0000 C   0  0  0  0  0  0  0  0  0  0  0  0
   -1.5000   -5.1962    0.0000 C   0  0  0  0  0  0  0  0  0  0  0  0
   -3.0000   -5.1962    0.0000 C   0  0  0  0  0  0  0  0  0  0  0  0
   -3.7500   -6.4952    0.0000 C   0  0  0  0  0  0  0  0  0  0  0  0
   -3.0000   -7.7942    0.0000 C   0  0  0  0  0  0  0  0  0  0  0  0
   -1.5000   -7.7942    0.0000 N   0  0  0  0  0  0  0  0  0  0  0  0
  1  2  1  0
  2  3  1  0
  3  4  1  0
  4  5  1  0
  5  6  1  0
  6  7  2  0
  7  8  1  0
  8  9  2  0
  9 10  1  0
 10 11  1  0
 11 12  1  0
 12 13  1  0
 13 14  2  0
 13 15  1  0
 15 16  1  0
 16 17  2  0
  9 18  1  0
 18 19  2  0
  2 20  1  0
 20 21  2  0
 21 22  1  0
 22 23  2  0
 23 24  1  0
 24 25  2  0
 19  6  1  0
 25 20  1  0
 16 11  1  0
M  END
>  <assay_description>  (285) 
Inhibition of human BSEP overexpressed in Sf9 cell membrane vesicles assessed as uptake of [3H]-taurocholate in presence of ATP measured after 15 to 20 mins by membrane vesicle transport assay

>  <molecule_pref_name>  (285) 
ROSIGLITAZONE

>  <canonical_smiles>  (285) 
CN(CCOc1ccc(CC2SC(=O)NC2=O)cc1)c1ccccn1

>  <pchembl_value>  (285) 
5.55

>  <standard_type>  (285) 
IC50

>  <standard_relation>  (285) 
=

>  <standard_value>  (285) 
2800.0

>  <standard_units>  (285) 
nM

>  <target_pref_name>  (285) 
Bile salt export pump

>  <target_organism>  (285) 
Homo sapiens

$$$$
CHEMBL21333
     RDKit          2D

 36 40  0  0  0  0  0  0  0  0999 V2000
    3.7500   -1.2990    0.0000 O   0  0  0  0  0  0  0  0  0  0  0  0
    3.0000   -2.5981    0.0000 C   0  0  0  0  0  0  0  0  0  0  0  0
    1.5000   -2.5981    0.0000 N   0  0  0  0  0  0  0  0  0  0  0  0
    0.7500   -1.2990    0.0000 C   0  0  0  0  0  0  0  0  0  0  0  0
    1.5000    0.0000    0.0000 C   0  0  0  0  0  0  0  0  0  0  0  0
    0.7500    1.2990    0.0000 C   0  0  0  0  0  0  0  0  0  0  0  0
   -0.7500    1.2990    0.0000 C   0  0  0  0  0  0  0  0  0  0  0  0
   -1.5000    0.0000    0.0000 C   0  0  0  0  0  0  0  0  0  0  0  0
   -3.0000    0.0000    0.0000 C   0  0  0  0  0  0  0  0  0  0  0  0
   -3.7500    1.2990    0.0000 O   0  0  0  0  0  0  0  0  0  0  0  0
   -3.7500   -1.2990    0.0000 C   0  0  0  0  0  0  0  0  0  0  0  0
   -3.0000   -2.5981    0.0000 C   0  0  0  0  0  0  0  0  0  0  0  0
   -3.7500   -3.8971    0.0000 C   0  0  0  0  0  0  0  0  0  0  0  0
   -3.1399   -5.2674    0.0000 N   0  0  0  0  0  0  0  0  0  0  0  0
   -4.2546   -6.2711    0.0000 N   0  0  0  0  0  0  0  0  0  0  0  0
   -5.5537   -5.5211    0.0000 N   0  0  0  0  0  0  0  0  0  0  0  0
   -5.2418   -4.0539    0.0000 N   0  0  0  0  0  0  0  0  0  0  0  0
   -1.5000   -2.5981    0.0000 O   0  0  0  0  0  0  0  0  0  0  0  0
   -0.7500   -1.2990    0.0000 C   0  0  0  0  0  0  0  0  0  0  0  0
    3.7500   -3.8971    0.0000 C   0  0  0  0  0  0  0  0  0  0  0  0
    3.0000   -5.1962    0.0000 C   0  0  0  0  0  0  0  0  0  0  0  0
    3.7500   -6.4952    0.0000 C   0  0  0  0  0  0  0  0  0  0  0  0
    5.2500   -6.4952    0.0000 C   0  0  0  0  0  0  0  0  0  0  0  0
    6.0000   -7.7942    0.0000 O   0  0  0  0  0  0  0  0  0  0  0  0
    5.2500   -9.0933    0.0000 C   0  0  0  0  0  0  0  0  0  0  0  0
    6.0000  -10.3923    0.0000 C   0  0  0  0  0  0  0  0  0  0  0  0
    5.2500  -11.6913    0.0000 C   0  0  0  0  0  0  0  0  0  0  0  0
    6.0000  -12.9904    0.0000 C   0  0  0  0  0  0  0  0  0  0  0  0
    5.2500  -14.2894    0.0000 C   0  0  0  0  0  0  0  0  0  0  0  0
    3.7500  -14.2894    0.0000 C   0  0  0  0  0  0  0  0  0  0  0  0
    3.0000  -15.5885    0.0000 C   0  0  0  0  0  0  0  0  0  0  0  0
    3.7500  -16.8875    0.0000 C   0  0  0  0  0  0  0  0  0  0  0  0
    5.2500  -16.8875    0.0000 C   0  0  0  0  0  0  0  0  0  0  0  0
    6.0000  -15.5885    0.0000 C   0  0  0  0  0  0  0  0  0  0  0  0
    6.0000   -5.1962    0.0000 C   0  0  0  0  0  0  0  0  0  0  0  0
    5.2500   -3.8971    0.0000 C   0  0  0  0  0  0  0  0  0  0  0  0
  1  2  2  0
  2  3  1  0
  3  4  1  0
  4  5  2  0
  5  6  1  0
  6  7  2  0
  7  8  1  0
  8  9  1  0
  9 10  2  0
  9 11  1  0
 11 12  2  0
 12 13  1  0
 13 14  1  0
 14 15  2  0
 15 16  1  0
 16 17  1  0
 12 18  1  0
 18 19  1  0
  2 20  1  0
 20 21  2  0
 21 22  1  0
 22 23  2  0
 23 24  1  0
 24 25  1  0
 25 26  1  0
 26 27  1  0
 27 28  1  0
 28 29  1  0
 29 30  2  0
 30 31  1  0
 31 32  2  0
 32 33  1  0
 33 34  2  0
 23 35  1  0
 35 36  2  0
 19  4  1  0
 36 20  1  0
 19  8  2  0
 34 29  1  0
 17 13  2  0
M  END
>  <assay_description>  (286) 
Inhibition of human BSEP overexpressed in Sf9 cell membrane vesicles assessed as uptake of [3H]-taurocholate in presence of ATP measured after 15 to 20 mins by membrane vesicle transport assay

>  <molecule_pref_name>  (286) 
PRANLUKAST

>  <canonical_smiles>  (286) 
O=C(Nc1cccc2c(=O)cc(-c3nn[nH]n3)oc12)c1ccc(OCCCCc2ccccc2)cc1

>  <pchembl_value>  (286) 
5.53

>  <standard_type>  (286) 
IC50

>  <standard_relation>  (286) 
=

>  <standard_value>  (286) 
2970.0

>  <standard_units>  (286) 
nM

>  <target_pref_name>  (286) 
Bile salt export pump

>  <target_organism>  (286) 
Homo sapiens

$$$$
CHEMBL374478
     RDKit          2D

 59 63  0  0  0  0  0  0  0  0999 V2000
    0.4940    8.3646    0.0000 C   0  0  0  0  0  0  0  0  0  0  0  0
   -1.0057    8.3332    0.0000 O   0  0  0  0  0  0  0  0  0  0  0  0
   -1.7283    7.0188    0.0000 C   0  0  0  0  0  0  0  0  0  0  0  0
   -0.5195    6.1307    0.0000 C   0  0  0  0  0  0  0  0  0  0  0  0
    0.4184    4.9601    0.0000 C   0  0  0  0  0  0  0  0  0  0  0  0
    1.0212    3.5866    0.0000 O   0  0  0  0  0  0  0  0  0  0  0  0
    0.3943    1.2135    0.0000 C   0  0  0  0  0  0  0  0  0  0  0  0
    0.8578    2.6401    0.0000 C   0  0  0  0  0  0  0  0  0  0  0  0
    1.2760    0.0000    0.0000 O   0  0  0  0  0  0  0  0  0  0  0  0
    0.3943   -1.2135    0.0000 C   0  0  0  0  0  0  0  0  0  0  0  0
    0.7062   -2.6807    0.0000 C   0  0  0  0  0  0  0  0  0  0  0  0
    2.1328   -3.1443    0.0000 C   0  0  0  0  0  0  0  0  0  0  0  0
   -0.4086   -3.6844    0.0000 C   0  0  0  0  0  0  0  0  0  0  0  0
   -0.0967   -5.1517    0.0000 O   0  0  0  0  0  0  0  0  0  0  0  0
   -1.8351   -3.2209    0.0000 C   0  0  0  0  0  0  0  0  0  0  0  0
   -2.9499   -4.2246    0.0000 C   0  0  0  0  0  0  0  0  0  0  0  0
   -2.6380   -5.6918    0.0000 O   0  0  0  0  0  0  0  0  0  0  0  0
   -4.3764   -3.7611    0.0000 C   0  0  0  0  0  0  0  0  0  0  0  0
   -4.6883   -2.2939    0.0000 C   0  0  0  0  0  0  0  0  0  0  0  0
   -6.1149   -1.8303    0.0000 C   0  0  0  0  0  0  0  0  0  0  0  0
   -6.4268   -0.3631    0.0000 N   0  0  0  0  0  0  0  0  0  0  0  0
   -7.8533    0.1004    0.0000 N   0  0  0  0  0  0  0  0  0  0  0  0
   -8.1652    1.5676    0.0000 C   0  0  0  0  0  0  0  0  0  0  0  0
   -9.5918    2.0312    0.0000 C   0  0  0  0  0  0  0  0  0  0  0  0
  -10.7065    1.0275    0.0000 N   0  0  0  0  0  0  0  0  0  0  0  0
  -12.1331    1.4910    0.0000 C   0  0  0  0  0  0  0  0  0  0  0  0
  -10.3946   -0.4398    0.0000 C   0  0  0  0  0  0  0  0  0  0  0  0
   -8.9681   -0.9033    0.0000 C   0  0  0  0  0  0  0  0  0  0  0  0
   -3.5736   -1.2902    0.0000 C   0  0  0  0  0  0  0  0  0  0  0  0
   -3.8855    0.1771    0.0000 O   0  0  0  0  0  0  0  0  0  0  0  0
   -2.1470   -1.7537    0.0000 C   0  0  0  0  0  0  0  0  0  0  0  0
   -1.0323   -0.7500    0.0000 C   0  0  0  0  0  0  0  0  0  0  0  0
   -1.0323    0.7500    0.0000 C   0  0  0  0  0  0  0  0  0  0  0  0
   -2.2458    1.6317    0.0000 O   0  0  0  0  0  0  0  0  0  0  0  0
   -5.8674   -3.5964    0.0000 N   0  0  0  0  0  0  0  0  0  0  0  0
   -7.2649   -3.0515    0.0000 C   0  0  0  0  0  0  0  0  0  0  0  0
   -7.9876   -4.3660    0.0000 O   0  0  0  0  0  0  0  0  0  0  0  0
   -8.4738   -2.1635    0.0000 C   0  0  0  0  0  0  0  0  0  0  0  0
   -9.5120   -3.2461    0.0000 C   0  0  0  0  0  0  0  0  0  0  0  0
   -9.4116   -0.9928    0.0000 C   0  0  0  0  0  0  0  0  0  0  0  0
  -10.0145    0.3807    0.0000 C   0  0  0  0  0  0  0  0  0  0  0  0
  -10.2413    1.8634    0.0000 C   0  0  0  0  0  0  0  0  0  0  0  0
  -10.0767    3.3544    0.0000 C   0  0  0  0  0  0  0  0  0  0  0  0
  -11.5334    3.7122    0.0000 C   0  0  0  0  0  0  0  0  0  0  0  0
   -9.5318    4.7519    0.0000 C   0  0  0  0  0  0  0  0  0  0  0  0
  -10.8462    5.4746    0.0000 O   0  0  0  0  0  0  0  0  0  0  0  0
   -8.6437    5.9608    0.0000 C   0  0  0  0  0  0  0  0  0  0  0  0
   -9.7263    6.9990    0.0000 C   0  0  0  0  0  0  0  0  0  0  0  0
   -7.4731    6.8986    0.0000 C   0  0  0  0  0  0  0  0  0  0  0  0
   -8.2501    8.1817    0.0000 O   0  0  0  0  0  0  0  0  0  0  0  0
   -6.0995    7.5015    0.0000 C   0  0  0  0  0  0  0  0  0  0  0  0
   -6.5180    8.9419    0.0000 C   0  0  0  0  0  0  0  0  0  0  0  0
   -4.6168    7.7283    0.0000 C   0  0  0  0  0  0  0  0  0  0  0  0
   -4.6482    9.2280    0.0000 O   0  0  0  0  0  0  0  0  0  0  0  0
   -3.3651   10.0050    0.0000 C   0  0  0  0  0  0  0  0  0  0  0  0
   -3.3965   11.5047    0.0000 C   0  0  0  0  0  0  0  0  0  0  0  0
   -1.9724    9.4480    0.0000 O   0  0  0  0  0  0  0  0  0  0  0  0
   -3.1259    7.5637    0.0000 C   0  0  0  0  0  0  0  0  0  0  0  0
   -2.5931    8.9659    0.0000 C   0  0  0  0  0  0  0  0  0  0  0  0
  1  2  1  0
  3  2  1  1
  3  4  1  0
  4  5  2  0
  5  6  1  0
  6  7  1  0
  7  8  1  6
  7  9  1  0
  9 10  1  0
 10 11  2  0
 11 12  1  0
 11 13  1  0
 13 14  1  0
 13 15  2  0
 15 16  1  0
 16 17  1  0
 16 18  2  0
 18 19  1  0
 19 20  1  0
 20 21  2  0
 21 22  1  0
 22 23  1  0
 23 24  1  0
 24 25  1  0
 25 26  1  0
 25 27  1  0
 27 28  1  0
 19 29  2  0
 29 30  1  0
 29 31  1  0
 31 32  2  0
 32 33  1  0
 33 34  2  0
 18 35  1  0
 35 36  1  0
 36 37  2  0
 36 38  1  0
 38 39  1  0
 38 40  2  0
 40 41  1  0
 41 42  2  0
 42 43  1  0
 43 44  1  6
 43 45  1  0
 45 46  1  6
 45 47  1  0
 47 48  1  1
 47 49  1  0
 49 50  1  1
 49 51  1  0
 51 52  1  1
 51 53  1  0
 53 54  1  6
 54 55  1  0
 55 56  1  0
 55 57  2  0
 53 58  1  0
 58 59  1  6
 58  3  1  0
 33  7  1  0
 32 10  1  0
 31 15  1  0
 28 22  1  0
M  END
>  <assay_description>  (287) 
Inhibition of human BSEP overexpressed in Sf9 cell membrane vesicles assessed as uptake of [3H]-taurocholate in presence of ATP measured after 15 to 20 mins by membrane vesicle transport assay

>  <molecule_pref_name>  (287) 
RIFAMPIN

>  <canonical_smiles>  (287) 
CO[C@H]1/C=C/O[C@@]2(C)Oc3c(C)c(O)c4c(O)c(c(/C=N/N5CCN(C)CC5)c(O)c4c3C2=O)NC(=O)/C(C)=C\C=C\[C@H](C)[C@H](O)[C@@H](C)[C@@H](O)[C@@H](C)[C@H](OC(C)=O)[C@@H]1C

>  <pchembl_value>  (287) 
4.60

>  <standard_type>  (287) 
IC50

>  <standard_relation>  (287) 
=

>  <standard_value>  (287) 
25300.0

>  <standard_units>  (287) 
nM

>  <target_pref_name>  (287) 
Bile salt export pump

>  <target_organism>  (287) 
Homo sapiens

$$$$
CHEMBL282724
     RDKit          2D

 29 32  0  0  0  0  0  0  0  0999 V2000
   -2.9499    4.2246    0.0000 C   0  0  0  0  0  0  0  0  0  0  0  0
   -1.8351    3.2209    0.0000 C   0  0  0  0  0  0  0  0  0  0  0  0
   -2.1470    1.7537    0.0000 C   0  0  0  0  0  0  0  0  0  0  0  0
   -1.0323    0.7500    0.0000 C   0  0  0  0  0  0  0  0  0  0  0  0
    0.3943    1.2135    0.0000 C   0  0  0  0  0  0  0  0  0  0  0  0
    0.7062    2.6807    0.0000 C   0  0  0  0  0  0  0  0  0  0  0  0
   -0.4086    3.6844    0.0000 C   0  0  0  0  0  0  0  0  0  0  0  0
   -0.0967    5.1517    0.0000 C   0  0  0  0  0  0  0  0  0  0  0  0
    1.3299    5.6152    0.0000 C   0  0  0  0  0  0  0  0  0  0  0  0
    2.4446    4.6115    0.0000 O   0  0  0  0  0  0  0  0  0  0  0  0
    1.6418    7.0824    0.0000 C   0  0  0  0  0  0  0  0  0  0  0  0
    0.6381    8.1971    0.0000 S   0  0  0  0  0  0  0  0  0  0  0  0
    1.3881    9.4962    0.0000 C   0  0  0  0  0  0  0  0  0  0  0  0
    2.8553    9.1843    0.0000 C   0  0  0  0  0  0  0  0  0  0  0  0
    3.0121    7.6925    0.0000 C   0  0  0  0  0  0  0  0  0  0  0  0
    4.3111    6.9425    0.0000 S   0  0  0  0  0  0  0  0  0  0  0  0
    5.0611    8.2416    0.0000 O   0  0  0  0  0  0  0  0  0  0  0  0
    3.5611    5.6435    0.0000 O   0  0  0  0  0  0  0  0  0  0  0  0
    5.6102    6.1925    0.0000 N   0  0  0  0  0  0  0  0  0  0  0  0
    5.6102    4.6925    0.0000 C   0  0  0  0  0  0  0  0  0  0  0  0
    4.3966    3.8108    0.0000 O   0  0  0  0  0  0  0  0  0  0  0  0
    4.8602    2.3843    0.0000 N   0  0  0  0  0  0  0  0  0  0  0  0
    6.3602    2.3843    0.0000 C   0  0  0  0  0  0  0  0  0  0  0  0
    7.2418    1.1707    0.0000 C   0  0  0  0  0  0  0  0  0  0  0  0
    6.8237    3.8108    0.0000 C   0  0  0  0  0  0  0  0  0  0  0  0
    8.2503    4.2744    0.0000 Cl  0  0  0  0  0  0  0  0  0  0  0  0
    1.2760    0.0000    0.0000 O   0  0  0  0  0  0  0  0  0  0  0  0
    0.3943   -1.2135    0.0000 C   0  0  0  0  0  0  0  0  0  0  0  0
   -1.0323   -0.7500    0.0000 O   0  0  0  0  0  0  0  0  0  0  0  0
  1  2  1  0
  2  3  2  0
  3  4  1  0
  4  5  2  0
  5  6  1  0
  6  7  2  0
  7  8  1  0
  8  9  1  0
  9 10  2  0
  9 11  1  0
 11 12  1  0
 12 13  1  0
 13 14  2  0
 14 15  1  0
 15 16  1  0
 16 17  2  0
 16 18  2  0
 16 19  1  0
 19 20  1  0
 20 21  1  0
 21 22  1  0
 22 23  2  0
 23 24  1  0
 23 25  1  0
 25 26  1  0
  5 27  1  0
 27 28  1  0
 28 29  1  0
  7  2  1  0
 15 11  2  0
 25 20  2  0
 29  4  1  0
M  END
>  <assay_description>  (288) 
Inhibition of human BSEP overexpressed in Sf9 cell membrane vesicles assessed as uptake of [3H]-taurocholate in presence of ATP measured after 15 to 20 mins by membrane vesicle transport assay

>  <molecule_pref_name>  (288) 
SITAXENTAN

>  <canonical_smiles>  (288) 
Cc1cc2c(cc1CC(=O)c1sccc1S(=O)(=O)Nc1onc(C)c1Cl)OCO2

>  <pchembl_value>  (288) 
4.90

>  <standard_type>  (288) 
IC50

>  <standard_relation>  (288) 
=

>  <standard_value>  (288) 
12600.0

>  <standard_units>  (288) 
nM

>  <target_pref_name>  (288) 
Bile salt export pump

>  <target_organism>  (288) 
Homo sapiens

$$$$
CHEMBL92
     RDKit          2D

 58 63  0  0  0  0  0  0  0  0999 V2000
    3.8971   -1.8107    0.0000 C   0  0  0  0  0  0  0  0  0  0  0  0
    2.5981   -1.0607    0.0000 C   0  0  0  0  0  0  0  0  0  0  0  0
    2.5981    0.4393    0.0000 O   0  0  0  0  0  0  0  0  0  0  0  0
    1.2990   -1.8107    0.0000 O   0  0  0  0  0  0  0  0  0  0  0  0
   -0.0000   -1.0607    0.0000 C   0  0  0  0  0  0  0  0  0  0  0  0
    1.0607    0.0000    0.0000 C   0  0  0  0  0  0  0  0  0  0  0  0
    0.0000    1.0607    0.0000 O   0  0  0  0  0  0  0  0  0  0  0  0
   -1.0607    0.0000    0.0000 C   0  0  0  0  0  0  0  0  0  0  0  0
   -2.5095   -0.3882    0.0000 C   0  0  0  0  0  0  0  0  0  0  0  0
   -2.8978   -1.8371    0.0000 C   0  0  0  0  0  0  0  0  0  0  0  0
   -4.3467   -2.2253    0.0000 O   0  0  0  0  0  0  0  0  0  0  0  0
   -1.8371   -2.8978    0.0000 C   0  0  0  0  0  0  0  0  0  0  0  0
   -3.3243   -3.0936    0.0000 C   0  0  0  0  0  0  0  0  0  0  0  0
   -2.5871   -4.1968    0.0000 C   0  0  0  0  0  0  0  0  0  0  0  0
   -4.0743   -4.0010    0.0000 O   0  0  0  0  0  0  0  0  0  0  0  0
   -2.1989   -5.6457    0.0000 C   0  0  0  0  0  0  0  0  0  0  0  0
   -3.3889   -6.5588    0.0000 O   0  0  0  0  0  0  0  0  0  0  0  0
   -0.8999   -6.3957    0.0000 C   0  0  0  0  0  0  0  0  0  0  0  0
    0.1510   -7.4801    0.0000 C   0  0  0  0  0  0  0  0  0  0  0  0
   -0.4230   -8.8659    0.0000 C   0  0  0  0  0  0  0  0  0  0  0  0
    1.6382   -7.2843    0.0000 C   0  0  0  0  0  0  0  0  0  0  0  0
    2.5513   -8.4743    0.0000 O   0  0  0  0  0  0  0  0  0  0  0  0
    4.0385   -8.2785    0.0000 C   0  0  0  0  0  0  0  0  0  0  0  0
    4.6125   -6.8927    0.0000 O   0  0  0  0  0  0  0  0  0  0  0  0
    4.9516   -9.4686    0.0000 C   0  0  0  0  0  0  0  0  0  0  0  0
    4.3776  -10.8544    0.0000 O   0  0  0  0  0  0  0  0  0  0  0  0
    6.4388   -9.2728    0.0000 C   0  0  0  0  0  0  0  0  0  0  0  0
    7.0128   -7.8869    0.0000 N   0  0  0  0  0  0  0  0  0  0  0  0
    8.5000   -7.6912    0.0000 C   0  0  0  0  0  0  0  0  0  0  0  0
    9.4131   -8.8812    0.0000 O   0  0  0  0  0  0  0  0  0  0  0  0
    9.0740   -6.3053    0.0000 O   0  0  0  0  0  0  0  0  0  0  0  0
   10.5612   -6.1096    0.0000 C   0  0  0  0  0  0  0  0  0  0  0  0
   10.3654   -4.6224    0.0000 C   0  0  0  0  0  0  0  0  0  0  0  0
   10.7569   -7.5967    0.0000 C   0  0  0  0  0  0  0  0  0  0  0  0
   12.0483   -5.9138    0.0000 C   0  0  0  0  0  0  0  0  0  0  0  0
    7.3519  -10.4628    0.0000 C   0  0  0  0  0  0  0  0  0  0  0  0
    6.7779  -11.8486    0.0000 C   0  0  0  0  0  0  0  0  0  0  0  0
    7.6910  -13.0386    0.0000 C   0  0  0  0  0  0  0  0  0  0  0  0
    9.1782  -12.8429    0.0000 C   0  0  0  0  0  0  0  0  0  0  0  0
    9.7522  -11.4570    0.0000 C   0  0  0  0  0  0  0  0  0  0  0  0
    8.8391  -10.2670    0.0000 C   0  0  0  0  0  0  0  0  0  0  0  0
    2.2122   -5.8985    0.0000 C   0  0  0  0  0  0  0  0  0  0  0  0
    1.2990   -4.7084    0.0000 C   0  0  0  0  0  0  0  0  0  0  0  0
    2.7862   -4.9042    0.0000 O   0  0  0  0  0  0  0  0  0  0  0  0
    0.9108   -3.2595    0.0000 C   0  0  0  0  0  0  0  0  0  0  0  0
    2.1008   -2.3464    0.0000 O   0  0  0  0  0  0  0  0  0  0  0  0
    3.4867   -2.9204    0.0000 C   0  0  0  0  0  0  0  0  0  0  0  0
    3.6824   -4.4076    0.0000 O   0  0  0  0  0  0  0  0  0  0  0  0
    4.6767   -2.0073    0.0000 C   0  0  0  0  0  0  0  0  0  0  0  0
    6.0625   -2.5813    0.0000 C   0  0  0  0  0  0  0  0  0  0  0  0
    7.2525   -1.6682    0.0000 C   0  0  0  0  0  0  0  0  0  0  0  0
    7.0567   -0.1810    0.0000 C   0  0  0  0  0  0  0  0  0  0  0  0
    5.6709    0.3930    0.0000 C   0  0  0  0  0  0  0  0  0  0  0  0
    4.4809   -0.5201    0.0000 C   0  0  0  0  0  0  0  0  0  0  0  0
   -0.3882   -2.5095    0.0000 C   0  0  0  0  0  0  0  0  0  0  0  0
    0.5490   -6.0075    0.0000 C   0  0  0  0  0  0  0  0  0  0  0  0
    1.5054   -6.5377    0.0000 C   0  0  0  0  0  0  0  0  0  0  0  0
    0.9120   -7.4629    0.0000 C   0  0  0  0  0  0  0  0  0  0  0  0
  1  2  1  0
  2  3  2  0
  2  4  1  0
  5  4  1  6
  5  6  1  0
  6  7  1  0
  7  8  1  0
  8  9  1  1
  9 10  1  0
 10 11  1  1
 10 12  1  0
 12 13  1  1
 12 14  1  0
 14 15  2  0
 14 16  1  0
 16 17  1  1
 16 18  1  0
 18 19  2  0
 19 20  1  0
 19 21  1  0
 21 22  1  6
 22 23  1  0
 23 24  2  0
 23 25  1  0
 25 26  1  1
 25 27  1  0
 27 28  1  1
 28 29  1  0
 29 30  2  0
 29 31  1  0
 31 32  1  0
 32 33  1  0
 32 34  1  0
 32 35  1  0
 27 36  1  0
 36 37  2  0
 37 38  1  0
 38 39  2  0
 39 40  1  0
 40 41  2  0
 21 42  1  0
 42 43  1  0
 43 44  1  1
 43 45  1  0
 45 46  1  6
 46 47  1  0
 47 48  2  0
 47 49  1  0
 49 50  2  0
 50 51  1  0
 51 52  2  0
 52 53  1  0
 53 54  2  0
 55 45  1  1
 43 56  1  0
 56 57  1  0
 56 58  1  0
  8  5  1  0
 55 12  1  0
 55  5  1  0
 56 18  1  0
 41 36  1  0
 54 49  1  0
M  END
>  <assay_description>  (289) 
Inhibition of human BSEP overexpressed in Sf9 cell membrane vesicles assessed as uptake of [3H]-taurocholate in presence of ATP measured after 15 to 20 mins by membrane vesicle transport assay

>  <molecule_pref_name>  (289) 
DOCETAXEL

>  <canonical_smiles>  (289) 
CC(=O)O[C@@]12CO[C@@H]1C[C@H](O)[C@@]1(C)C(=O)[C@H](O)C3=C(C)[C@@H](OC(=O)[C@H](O)[C@@H](NC(=O)OC(C)(C)C)c4ccccc4)C[C@@](O)([C@@H](OC(=O)c4ccccc4)[C@@H]12)C3(C)C

>  <pchembl_value>  (289) 
4.39

>  <standard_type>  (289) 
IC50

>  <standard_relation>  (289) 
=

>  <standard_value>  (289) 
41000.0

>  <standard_units>  (289) 
nM

>  <target_pref_name>  (289) 
Bile salt export pump

>  <target_organism>  (289) 
Homo sapiens

$$$$
CHEMBL1136
     RDKit          2D

 58 62  0  0  0  0  0  0  0  0999 V2000
   -0.7339   -4.5199    0.0000 C   0  0  0  0  0  0  0  0  0  0  0  0
   -0.5104   -3.0367    0.0000 C   0  0  0  0  0  0  0  0  0  0  0  0
   -1.6831   -2.1015    0.0000 C   0  0  0  0  0  0  0  0  0  0  0  0
   -2.8559   -3.0367    0.0000 O   0  0  0  0  0  0  0  0  0  0  0  0
   -4.3183   -3.3705    0.0000 C   0  0  0  0  0  0  0  0  0  0  0  0
   -4.3183   -4.8705    0.0000 O   0  0  0  0  0  0  0  0  0  0  0  0
   -5.7806   -3.0367    0.0000 C   0  0  0  0  0  0  0  0  0  0  0  0
   -6.4315   -4.3881    0.0000 C   0  0  0  0  0  0  0  0  0  0  0  0
   -6.9534   -2.1015    0.0000 C   0  0  0  0  0  0  0  0  0  0  0  0
   -8.1261   -3.0367    0.0000 O   0  0  0  0  0  0  0  0  0  0  0  0
   -7.6042   -0.7500    0.0000 C   0  0  0  0  0  0  0  0  0  0  0  0
   -9.0666   -1.0838    0.0000 C   0  0  0  0  0  0  0  0  0  0  0  0
   -7.6042    0.7500    0.0000 C   0  0  0  0  0  0  0  0  0  0  0  0
   -9.0666    1.0838    0.0000 O   0  0  0  0  0  0  0  0  0  0  0  0
   -9.5087    2.5171    0.0000 C   0  0  0  0  0  0  0  0  0  0  0  0
   -8.4885    3.6167    0.0000 O   0  0  0  0  0  0  0  0  0  0  0  0
   -8.9306    5.0501    0.0000 C   0  0  0  0  0  0  0  0  0  0  0  0
   -7.9104    6.1497    0.0000 C   0  0  0  0  0  0  0  0  0  0  0  0
  -10.3930    5.3839    0.0000 C   0  0  0  0  0  0  0  0  0  0  0  0
  -11.4133    4.2843    0.0000 C   0  0  0  0  0  0  0  0  0  0  0  0
  -12.8757    4.6181    0.0000 N   0  0  0  0  0  0  0  0  0  0  0  0
  -13.3178    6.0514    0.0000 C   0  0  0  0  0  0  0  0  0  0  0  0
  -13.8959    3.5185    0.0000 C   0  0  0  0  0  0  0  0  0  0  0  0
  -10.9711    2.8509    0.0000 C   0  0  0  0  0  0  0  0  0  0  0  0
  -11.9914    1.7513    0.0000 O   0  0  0  0  0  0  0  0  0  0  0  0
   -6.9534    2.1015    0.0000 C   0  0  0  0  0  0  0  0  0  0  0  0
   -8.4492    2.2135    0.0000 C   0  0  0  0  0  0  0  0  0  0  0  0
   -7.3955    3.5348    0.0000 O   0  0  0  0  0  0  0  0  0  0  0  0
   -6.3753    4.6344    0.0000 C   0  0  0  0  0  0  0  0  0  0  0  0
   -5.7806    3.0367    0.0000 C   0  0  0  0  0  0  0  0  0  0  0  0
   -4.3183    3.3705    0.0000 C   0  0  0  0  0  0  0  0  0  0  0  0
   -4.3183    4.8705    0.0000 C   0  0  0  0  0  0  0  0  0  0  0  0
   -2.8559    3.0367    0.0000 C   0  0  0  0  0  0  0  0  0  0  0  0
   -2.2050    4.3881    0.0000 O   0  0  0  0  0  0  0  0  0  0  0  0
   -1.6831    2.1015    0.0000 C   0  0  0  0  0  0  0  0  0  0  0  0
   -0.5104    3.0367    0.0000 C   0  0  0  0  0  0  0  0  0  0  0  0
   -1.0323    0.7500    0.0000 C   0  0  0  0  0  0  0  0  0  0  0  0
    0.3943    1.2135    0.0000 N   0  0  0  0  0  0  0  0  0  0  0  0
    0.8578    2.6401    0.0000 C   0  0  0  0  0  0  0  0  0  0  0  0
    2.3250    2.9520    0.0000 C   0  0  0  0  0  0  0  0  0  0  0  0
    2.7886    4.3786    0.0000 C   0  0  0  0  0  0  0  0  0  0  0  0
    4.2558    4.6904    0.0000 C   0  0  0  0  0  0  0  0  0  0  0  0
    4.7193    6.1170    0.0000 N   0  0  0  0  0  0  0  0  0  0  0  0
    3.8376    7.3305    0.0000 C   0  0  0  0  0  0  0  0  0  0  0  0
    4.7193    8.5441    0.0000 N   0  0  0  0  0  0  0  0  0  0  0  0
    6.1459    8.0805    0.0000 C   0  0  0  0  0  0  0  0  0  0  0  0
    7.3594    8.9622    0.0000 C   0  0  0  0  0  0  0  0  0  0  0  0
    8.7297    8.3521    0.0000 C   0  0  0  0  0  0  0  0  0  0  0  0
    9.9433    9.2338    0.0000 C   0  0  0  0  0  0  0  0  0  0  0  0
    9.7865   10.7256    0.0000 C   0  0  0  0  0  0  0  0  0  0  0  0
    8.4162   11.3357    0.0000 N   0  0  0  0  0  0  0  0  0  0  0  0
    7.2026   10.4540    0.0000 C   0  0  0  0  0  0  0  0  0  0  0  0
    6.1459    6.5805    0.0000 C   0  0  0  0  0  0  0  0  0  0  0  0
    1.2760    0.0000    0.0000 C   0  0  0  0  0  0  0  0  0  0  0  0
    2.7760    0.0000    0.0000 O   0  0  0  0  0  0  0  0  0  0  0  0
    0.3943   -1.2135    0.0000 O   0  0  0  0  0  0  0  0  0  0  0  0
   -1.0323   -0.7500    0.0000 C   0  0  0  0  0  0  0  0  0  0  0  0
   -0.4427   -2.1293    0.0000 C   0  0  0  0  0  0  0  0  0  0  0  0
  1  2  1  0
  3  2  1  1
  3  4  1  0
  4  5  1  0
  5  6  2  0
  5  7  1  0
  7  8  1  6
  7  9  1  0
  9 10  2  0
  9 11  1  0
 11 12  1  6
 11 13  1  0
 13 14  1  1
 15 14  1  1
 15 16  1  0
 16 17  1  0
 17 18  1  1
 17 19  1  0
 19 20  1  0
 20 21  1  1
 21 22  1  0
 21 23  1  0
 20 24  1  0
 24 25  1  6
 13 26  1  0
 26 27  1  1
 26 28  1  0
 28 29  1  0
 26 30  1  0
 30 31  1  0
 31 32  1  1
 31 33  1  0
 33 34  2  0
 33 35  1  0
 35 36  1  6
 35 37  1  0
 37 38  1  1
 38 39  1  0
 39 40  1  0
 40 41  1  0
 41 42  1  0
 42 43  1  0
 43 44  1  0
 44 45  2  0
 45 46  1  0
 46 47  1  0
 47 48  2  0
 48 49  1  0
 49 50  2  0
 50 51  1  0
 51 52  2  0
 46 53  2  0
 38 54  1  0
 54 55  2  0
 54 56  1  0
 56 57  1  0
 57 58  1  1
 57  3  1  0
 24 15  1  0
 57 37  1  0
 53 43  1  0
 52 47  1  0
M  END
>  <assay_description>  (290) 
Inhibition of human BSEP overexpressed in Sf9 cell membrane vesicles assessed as uptake of [3H]-taurocholate in presence of ATP measured after 15 to 20 mins by membrane vesicle transport assay

>  <molecule_pref_name>  (290) 
TELITHROMYCIN

>  <canonical_smiles>  (290) 
CC[C@H]1OC(=O)[C@H](C)C(=O)[C@H](C)[C@@H](O[C@@H]2O[C@H](C)C[C@H](N(C)C)[C@H]2O)[C@](C)(OC)C[C@@H](C)C(=O)[C@H](C)[C@H]2N(CCCCn3cnc(-c4cccnc4)c3)C(=O)O[C@]12C

>  <pchembl_value>  (290) 
5.30

>  <standard_type>  (290) 
IC50

>  <standard_relation>  (290) 
=

>  <standard_value>  (290) 
5000.0

>  <standard_units>  (290) 
nM

>  <target_pref_name>  (290) 
Bile salt export pump

>  <target_organism>  (290) 
Homo sapiens

$$$$
CHEMBL114
     RDKit          2D

 49 53  0  0  0  0  0  0  0  0999 V2000
    0.2010   -8.5442    0.0000 C   0  0  0  0  0  0  0  0  0  0  0  0
    1.5000   -7.7942    0.0000 C   0  0  0  0  0  0  0  0  0  0  0  0
    2.7990   -7.0442    0.0000 C   0  0  0  0  0  0  0  0  0  0  0  0
    2.2500   -9.0933    0.0000 C   0  0  0  0  0  0  0  0  0  0  0  0
    0.7500   -6.4952    0.0000 N   0  0  0  0  0  0  0  0  0  0  0  0
    1.5000   -5.1962    0.0000 C   0  0  0  0  0  0  0  0  0  0  0  0
    3.0000   -5.1962    0.0000 O   0  0  0  0  0  0  0  0  0  0  0  0
    0.7500   -3.8971    0.0000 C   0  0  0  0  0  0  0  0  0  0  0  0
    1.5000   -2.5981    0.0000 C   0  0  0  0  0  0  0  0  0  0  0  0
    0.7500   -1.2990    0.0000 C   0  0  0  0  0  0  0  0  0  0  0  0
    1.5000    0.0000    0.0000 C   0  0  0  0  0  0  0  0  0  0  0  0
    0.7500    1.2990    0.0000 C   0  0  0  0  0  0  0  0  0  0  0  0
   -0.7500    1.2990    0.0000 C   0  0  0  0  0  0  0  0  0  0  0  0
   -1.5000    0.0000    0.0000 C   0  0  0  0  0  0  0  0  0  0  0  0
   -0.7500   -1.2990    0.0000 C   0  0  0  0  0  0  0  0  0  0  0  0
   -1.5000   -2.5981    0.0000 C   0  0  0  0  0  0  0  0  0  0  0  0
   -0.7500   -3.8971    0.0000 N   0  0  0  0  0  0  0  0  0  0  0  0
   -1.5000   -5.1962    0.0000 C   0  0  0  0  0  0  0  0  0  0  0  0
   -3.0000   -5.1962    0.0000 C   0  0  0  0  0  0  0  0  0  0  0  0
   -3.7500   -3.8971    0.0000 O   0  0  0  0  0  0  0  0  0  0  0  0
   -3.7500   -6.4952    0.0000 C   0  0  0  0  0  0  0  0  0  0  0  0
   -5.2500   -6.4952    0.0000 C   0  0  0  0  0  0  0  0  0  0  0  0
   -6.0000   -7.7942    0.0000 C   0  0  0  0  0  0  0  0  0  0  0  0
   -7.5000   -7.7942    0.0000 C   0  0  0  0  0  0  0  0  0  0  0  0
   -8.2500   -9.0933    0.0000 C   0  0  0  0  0  0  0  0  0  0  0  0
   -7.5000  -10.3923    0.0000 C   0  0  0  0  0  0  0  0  0  0  0  0
   -6.0000  -10.3923    0.0000 C   0  0  0  0  0  0  0  0  0  0  0  0
   -5.2500   -9.0933    0.0000 C   0  0  0  0  0  0  0  0  0  0  0  0
   -3.0000   -7.7942    0.0000 N   0  0  0  0  0  0  0  0  0  0  0  0
   -1.5000   -7.7942    0.0000 C   0  0  0  0  0  0  0  0  0  0  0  0
   -0.7500   -6.4952    0.0000 O   0  0  0  0  0  0  0  0  0  0  0  0
   -0.7500   -9.0933    0.0000 C   0  0  0  0  0  0  0  0  0  0  0  0
    0.7500   -9.0933    0.0000 C   0  0  0  0  0  0  0  0  0  0  0  0
    1.5000  -10.3923    0.0000 C   0  0  0  0  0  0  0  0  0  0  0  0
    3.0000  -10.3923    0.0000 N   0  0  0  0  0  0  0  0  0  0  0  0
    0.7500  -11.6913    0.0000 O   0  0  0  0  0  0  0  0  0  0  0  0
   -1.5000  -10.3923    0.0000 N   0  0  0  0  0  0  0  0  0  0  0  0
   -3.0000  -10.3923    0.0000 C   0  0  0  0  0  0  0  0  0  0  0  0
   -3.7500   -9.0933    0.0000 O   0  0  0  0  0  0  0  0  0  0  0  0
   -3.7500  -11.6913    0.0000 C   0  0  0  0  0  0  0  0  0  0  0  0
   -3.0000  -12.9904    0.0000 C   0  0  0  0  0  0  0  0  0  0  0  0
   -3.7500  -14.2894    0.0000 C   0  0  0  0  0  0  0  0  0  0  0  0
   -5.2500  -14.2894    0.0000 C   0  0  0  0  0  0  0  0  0  0  0  0
   -6.0000  -15.5885    0.0000 C   0  0  0  0  0  0  0  0  0  0  0  0
   -7.5000  -15.5885    0.0000 C   0  0  0  0  0  0  0  0  0  0  0  0
   -8.2500  -14.2894    0.0000 C   0  0  0  0  0  0  0  0  0  0  0  0
   -7.5000  -12.9904    0.0000 C   0  0  0  0  0  0  0  0  0  0  0  0
   -6.0000  -12.9904    0.0000 C   0  0  0  0  0  0  0  0  0  0  0  0
   -5.2500  -11.6913    0.0000 N   0  0  0  0  0  0  0  0  0  0  0  0
  1  2  1  0
  2  3  1  0
  2  4  1  0
  2  5  1  0
  5  6  1  0
  6  7  2  0
  8  6  1  1
  8  9  1  0
 10  9  1  1
 10 11  1  0
 11 12  1  0
 12 13  1  0
 13 14  1  0
 15 14  1  1
 15 16  1  0
 16 17  1  0
 17 18  1  0
 18 19  1  0
 19 20  1  6
 19 21  1  0
 21 22  1  1
 22 23  1  0
 23 24  2  0
 24 25  1  0
 25 26  2  0
 26 27  1  0
 27 28  2  0
 21 29  1  0
 29 30  1  0
 30 31  2  0
 30 32  1  0
 32 33  1  6
 33 34  1  0
 34 35  1  0
 34 36  2  0
 32 37  1  0
 37 38  1  0
 38 39  2  0
 38 40  1  0
 40 41  2  0
 41 42  1  0
 42 43  2  0
 43 44  1  0
 44 45  2  0
 45 46  1  0
 46 47  2  0
 47 48  1  0
 48 49  2  0
 17  8  1  0
 28 23  1  0
 49 40  1  0
 15 10  1  0
 48 43  1  0
M  END
>  <assay_description>  (291) 
Inhibition of human BSEP overexpressed in Sf9 cell membrane vesicles assessed as uptake of [3H]-taurocholate in presence of ATP measured after 15 to 20 mins by membrane vesicle transport assay

>  <molecule_pref_name>  (291) 
SAQUINAVIR

>  <canonical_smiles>  (291) 
CC(C)(C)NC(=O)[C@@H]1C[C@@H]2CCCC[C@@H]2CN1C[C@@H](O)[C@H](Cc1ccccc1)NC(=O)[C@H](CC(N)=O)NC(=O)c1ccc2ccccc2n1

>  <pchembl_value>  (291) 
5.31

>  <standard_type>  (291) 
IC50

>  <standard_relation>  (291) 
=

>  <standard_value>  (291) 
4900.0

>  <standard_units>  (291) 
nM

>  <target_pref_name>  (291) 
Bile salt export pump

>  <target_organism>  (291) 
Homo sapiens

$$$$
CHEMBL409
     RDKit          2D

 29 30  0  0  0  0  0  0  0  0999 V2000
    3.7500   -2.3971    0.0000 C   0  0  0  0  0  0  0  0  0  0  0  0
    3.7500   -3.8971    0.0000 C   0  0  0  0  0  0  0  0  0  0  0  0
    5.2500   -3.8971    0.0000 O   0  0  0  0  0  0  0  0  0  0  0  0
    2.2500   -3.8971    0.0000 C   0  0  0  0  0  0  0  0  0  0  0  0
    1.5000   -2.5981    0.0000 S   0  0  0  0  0  0  0  0  0  0  0  0
    2.7990   -1.8481    0.0000 O   0  0  0  0  0  0  0  0  0  0  0  0
    0.2010   -3.3481    0.0000 O   0  0  0  0  0  0  0  0  0  0  0  0
    0.7500   -1.2990    0.0000 C   0  0  0  0  0  0  0  0  0  0  0  0
    1.5000    0.0000    0.0000 C   0  0  0  0  0  0  0  0  0  0  0  0
    0.7500    1.2990    0.0000 C   0  0  0  0  0  0  0  0  0  0  0  0
   -0.7500    1.2990    0.0000 C   0  0  0  0  0  0  0  0  0  0  0  0
   -1.5000    2.5981    0.0000 F   0  0  0  0  0  0  0  0  0  0  0  0
   -1.5000    0.0000    0.0000 C   0  0  0  0  0  0  0  0  0  0  0  0
   -0.7500   -1.2990    0.0000 C   0  0  0  0  0  0  0  0  0  0  0  0
    3.7500   -5.3971    0.0000 C   0  0  0  0  0  0  0  0  0  0  0  0
    2.4510   -6.1471    0.0000 O   0  0  0  0  0  0  0  0  0  0  0  0
    5.0490   -6.1471    0.0000 N   0  0  0  0  0  0  0  0  0  0  0  0
    5.0490   -7.6471    0.0000 C   0  0  0  0  0  0  0  0  0  0  0  0
    3.7500   -8.3971    0.0000 C   0  0  0  0  0  0  0  0  0  0  0  0
    3.7500   -9.8971    0.0000 C   0  0  0  0  0  0  0  0  0  0  0  0
    5.0490  -10.6471    0.0000 C   0  0  0  0  0  0  0  0  0  0  0  0
    5.0490  -12.1471    0.0000 C   0  0  0  0  0  0  0  0  0  0  0  0
    5.0490  -13.6471    0.0000 N   0  0  0  0  0  0  0  0  0  0  0  0
    6.3481   -9.8971    0.0000 C   0  0  0  0  0  0  0  0  0  0  0  0
    7.6471  -10.6471    0.0000 C   0  0  0  0  0  0  0  0  0  0  0  0
    8.9462  -11.3971    0.0000 F   0  0  0  0  0  0  0  0  0  0  0  0
    8.3971   -9.3481    0.0000 F   0  0  0  0  0  0  0  0  0  0  0  0
    6.8971  -11.9462    0.0000 F   0  0  0  0  0  0  0  0  0  0  0  0
    6.3481   -8.3971    0.0000 C   0  0  0  0  0  0  0  0  0  0  0  0
  1  2  1  0
  2  3  1  0
  2  4  1  0
  4  5  1  0
  5  6  2  0
  5  7  2  0
  5  8  1  0
  8  9  2  0
  9 10  1  0
 10 11  2  0
 11 12  1  0
 11 13  1  0
 13 14  2  0
  2 15  1  0
 15 16  2  0
 15 17  1  0
 17 18  1  0
 18 19  2  0
 19 20  1  0
 20 21  2  0
 21 22  1  0
 22 23  3  0
 21 24  1  0
 24 25  1  0
 25 26  1  0
 25 27  1  0
 25 28  1  0
 24 29  2  0
 14  8  1  0
 29 18  1  0
M  END
>  <assay_description>  (292) 
Inhibition of human BSEP overexpressed in Sf9 cell membrane vesicles assessed as uptake of [3H]-taurocholate in presence of ATP measured after 15 to 20 mins by membrane vesicle transport assay

>  <molecule_pref_name>  (292) 
BICALUTAMIDE

>  <canonical_smiles>  (292) 
CC(O)(CS(=O)(=O)c1ccc(F)cc1)C(=O)Nc1ccc(C#N)c(C(F)(F)F)c1

>  <pchembl_value>  (292) 
4.10

>  <standard_type>  (292) 
IC50

>  <standard_relation>  (292) 
=

>  <standard_value>  (292) 
79600.0

>  <standard_units>  (292) 
nM

>  <target_pref_name>  (292) 
Bile salt export pump

>  <target_organism>  (292) 
Homo sapiens

$$$$
CHEMBL415324
     RDKit          2D

 24 25  0  0  0  0  0  0  0  0999 V2000
    3.7500   -1.2990    0.0000 C   0  0  0  0  0  0  0  0  0  0  0  0
    3.0000    0.0000    0.0000 O   0  0  0  0  0  0  0  0  0  0  0  0
    1.5000    0.0000    0.0000 C   0  0  0  0  0  0  0  0  0  0  0  0
    0.7500   -1.2990    0.0000 C   0  0  0  0  0  0  0  0  0  0  0  0
   -0.7500   -1.2990    0.0000 C   0  0  0  0  0  0  0  0  0  0  0  0
   -1.5000    0.0000    0.0000 C   0  0  0  0  0  0  0  0  0  0  0  0
   -3.0000    0.0000    0.0000 C   0  0  0  0  0  0  0  0  0  0  0  0
   -3.7500    1.2990    0.0000 C   0  0  0  0  0  0  0  0  0  0  0  0
   -5.2500    1.2990    0.0000 C   0  0  0  0  0  0  0  0  0  0  0  0
   -6.0000    0.0000    0.0000 O   0  0  0  0  0  0  0  0  0  0  0  0
   -6.0000    2.5981    0.0000 N   0  0  0  0  0  0  0  0  0  0  0  0
   -7.5000    2.5981    0.0000 C   0  0  0  0  0  0  0  0  0  0  0  0
   -8.2500    1.2990    0.0000 C   0  0  0  0  0  0  0  0  0  0  0  0
   -9.7500    1.2990    0.0000 C   0  0  0  0  0  0  0  0  0  0  0  0
  -10.5000    2.5981    0.0000 C   0  0  0  0  0  0  0  0  0  0  0  0
   -9.7500    3.8971    0.0000 C   0  0  0  0  0  0  0  0  0  0  0  0
   -8.2500    3.8971    0.0000 C   0  0  0  0  0  0  0  0  0  0  0  0
   -7.5000    5.1962    0.0000 C   0  0  0  0  0  0  0  0  0  0  0  0
   -6.0000    5.1962    0.0000 O   0  0  0  0  0  0  0  0  0  0  0  0
   -8.2500    6.4952    0.0000 O   0  0  0  0  0  0  0  0  0  0  0  0
   -0.7500    1.2990    0.0000 C   0  0  0  0  0  0  0  0  0  0  0  0
    0.7500    1.2990    0.0000 C   0  0  0  0  0  0  0  0  0  0  0  0
    1.5000    2.5981    0.0000 O   0  0  0  0  0  0  0  0  0  0  0  0
    0.7500    3.8971    0.0000 C   0  0  0  0  0  0  0  0  0  0  0  0
  1  2  1  0
  2  3  1  0
  3  4  2  0
  4  5  1  0
  5  6  2  0
  6  7  1  0
  7  8  2  0
  8  9  1  0
  9 10  2  0
  9 11  1  0
 11 12  1  0
 12 13  2  0
 13 14  1  0
 14 15  2  0
 15 16  1  0
 16 17  2  0
 17 18  1  0
 18 19  2  0
 18 20  1  0
  6 21  1  0
 21 22  2  0
 22 23  1  0
 23 24  1  0
 22  3  1  0
 17 12  1  0
M  END
>  <assay_description>  (293) 
Inhibition of human BSEP overexpressed in Sf9 cell membrane vesicles assessed as uptake of [3H]-taurocholate in presence of ATP measured after 15 to 20 mins by membrane vesicle transport assay

>  <molecule_pref_name>  (293) 
TRANILAST

>  <canonical_smiles>  (293) 
COc1ccc(/C=C/C(=O)Nc2ccccc2C(=O)O)cc1OC

>  <pchembl_value>  (293) 
4.38

>  <standard_type>  (293) 
IC50

>  <standard_relation>  (293) 
=

>  <standard_value>  (293) 
41500.0

>  <standard_units>  (293) 
nM

>  <target_pref_name>  (293) 
Bile salt export pump

>  <target_organism>  (293) 
Homo sapiens

$$$$
CHEMBL932
     RDKit          2D

 36 39  0  0  0  0  0  0  0  0999 V2000
    6.0000   -2.5981    0.0000 O   0  0  0  0  0  0  0  0  0  0  0  0
    5.2500   -1.2990    0.0000 C   0  0  0  0  0  0  0  0  0  0  0  0
    3.7500   -1.2990    0.0000 C   0  0  0  0  0  0  0  0  0  0  0  0
    3.0000    0.0000    0.0000 N   0  0  0  0  0  0  0  0  0  0  0  0
    3.7500    1.2990    0.0000 C   0  0  0  0  0  0  0  0  0  0  0  0
    5.2500    1.2990    0.0000 C   0  0  0  0  0  0  0  0  0  0  0  0
    6.0000    2.5981    0.0000 O   0  0  0  0  0  0  0  0  0  0  0  0
    1.5000    0.0000    0.0000 C   0  0  0  0  0  0  0  0  0  0  0  0
    0.7500   -1.2990    0.0000 N   0  0  0  0  0  0  0  0  0  0  0  0
   -0.7500   -1.2990    0.0000 C   0  0  0  0  0  0  0  0  0  0  0  0
   -1.5000   -2.5981    0.0000 N   0  0  0  0  0  0  0  0  0  0  0  0
   -3.0000   -2.5981    0.0000 C   0  0  0  0  0  0  0  0  0  0  0  0
   -3.7500   -3.8971    0.0000 C   0  0  0  0  0  0  0  0  0  0  0  0
   -3.0000   -5.1962    0.0000 C   0  0  0  0  0  0  0  0  0  0  0  0
   -1.5000   -5.1962    0.0000 C   0  0  0  0  0  0  0  0  0  0  0  0
   -0.7500   -3.8971    0.0000 C   0  0  0  0  0  0  0  0  0  0  0  0
   -1.5000    0.0000    0.0000 C   0  0  0  0  0  0  0  0  0  0  0  0
   -3.0000    0.0000    0.0000 N   0  0  0  0  0  0  0  0  0  0  0  0
   -3.7500    1.2990    0.0000 C   0  0  0  0  0  0  0  0  0  0  0  0
   -5.2500    1.2990    0.0000 N   0  0  0  0  0  0  0  0  0  0  0  0
   -6.0000    2.5981    0.0000 C   0  0  0  0  0  0  0  0  0  0  0  0
   -7.5000    2.5981    0.0000 C   0  0  0  0  0  0  0  0  0  0  0  0
   -8.2500    3.8971    0.0000 O   0  0  0  0  0  0  0  0  0  0  0  0
   -6.0000    0.0000    0.0000 C   0  0  0  0  0  0  0  0  0  0  0  0
   -7.5000    0.0000    0.0000 C   0  0  0  0  0  0  0  0  0  0  0  0
   -8.2500   -1.2990    0.0000 O   0  0  0  0  0  0  0  0  0  0  0  0
   -3.0000    2.5981    0.0000 N   0  0  0  0  0  0  0  0  0  0  0  0
   -1.5000    2.5981    0.0000 C   0  0  0  0  0  0  0  0  0  0  0  0
   -0.7500    3.8971    0.0000 N   0  0  0  0  0  0  0  0  0  0  0  0
    0.7500    3.8971    0.0000 C   0  0  0  0  0  0  0  0  0  0  0  0
    1.5000    5.1962    0.0000 C   0  0  0  0  0  0  0  0  0  0  0  0
    0.7500    6.4952    0.0000 C   0  0  0  0  0  0  0  0  0  0  0  0
   -0.7500    6.4952    0.0000 C   0  0  0  0  0  0  0  0  0  0  0  0
   -1.5000    5.1962    0.0000 C   0  0  0  0  0  0  0  0  0  0  0  0
   -0.7500    1.2990    0.0000 C   0  0  0  0  0  0  0  0  0  0  0  0
    0.7500    1.2990    0.0000 N   0  0  0  0  0  0  0  0  0  0  0  0
  1  2  1  0
  2  3  1  0
  3  4  1  0
  4  5  1  0
  5  6  1  0
  6  7  1  0
  4  8  1  0
  8  9  2  0
  9 10  1  0
 10 11  1  0
 11 12  1  0
 12 13  1  0
 13 14  1  0
 14 15  1  0
 15 16  1  0
 10 17  2  0
 17 18  1  0
 18 19  2  0
 19 20  1  0
 20 21  1  0
 21 22  1  0
 22 23  1  0
 20 24  1  0
 24 25  1  0
 25 26  1  0
 19 27  1  0
 27 28  2  0
 28 29  1  0
 29 30  1  0
 30 31  1  0
 31 32  1  0
 32 33  1  0
 33 34  1  0
 28 35  1  0
 35 36  2  0
 36  8  1  0
 16 11  1  0
 35 17  1  0
 34 29  1  0
M  END
>  <assay_description>  (294) 
Inhibition of human BSEP overexpressed in Sf9 cell membrane vesicles assessed as uptake of [3H]-taurocholate in presence of ATP measured after 15 to 20 mins by membrane vesicle transport assay

>  <molecule_pref_name>  (294) 
DIPYRIDAMOLE

>  <canonical_smiles>  (294) 
OCCN(CCO)c1nc(N2CCCCC2)c2nc(N(CCO)CCO)nc(N3CCCCC3)c2n1

>  <pchembl_value>  (294) 
5.40

>  <standard_type>  (294) 
IC50

>  <standard_relation>  (294) 
=

>  <standard_value>  (294) 
4000.0

>  <standard_units>  (294) 
nM

>  <target_pref_name>  (294) 
Bile salt export pump

>  <target_organism>  (294) 
Homo sapiens

$$$$
CHEMBL408
     RDKit          2D

 31 34  0  0  0  0  0  0  0  0999 V2000
   -1.5000   -5.1962    0.0000 C   0  0  0  0  0  0  0  0  0  0  0  0
   -0.7500   -3.8971    0.0000 C   0  0  0  0  0  0  0  0  0  0  0  0
   -1.5000   -2.5981    0.0000 C   0  0  0  0  0  0  0  0  0  0  0  0
   -3.0000   -2.5981    0.0000 C   0  0  0  0  0  0  0  0  0  0  0  0
   -0.7500   -1.2990    0.0000 C   0  0  0  0  0  0  0  0  0  0  0  0
    0.7500   -1.2990    0.0000 C   0  0  0  0  0  0  0  0  0  0  0  0
    1.5000   -2.5981    0.0000 C   0  0  0  0  0  0  0  0  0  0  0  0
    3.0000   -2.5981    0.0000 C   0  0  0  0  0  0  0  0  0  0  0  0
    0.7500   -3.8971    0.0000 C   0  0  0  0  0  0  0  0  0  0  0  0
    1.5000   -5.1962    0.0000 O   0  0  0  0  0  0  0  0  0  0  0  0
    1.5000    0.0000    0.0000 C   0  0  0  0  0  0  0  0  0  0  0  0
    0.7500    1.2990    0.0000 C   0  0  0  0  0  0  0  0  0  0  0  0
   -0.7500    1.2990    0.0000 C   0  0  0  0  0  0  0  0  0  0  0  0
   -2.1595    1.8121    0.0000 C   0  0  0  0  0  0  0  0  0  0  0  0
   -0.4895    2.7762    0.0000 C   0  0  0  0  0  0  0  0  0  0  0  0
    0.9200    3.2893    0.0000 O   0  0  0  0  0  0  0  0  0  0  0  0
    1.1805    4.7665    0.0000 C   0  0  0  0  0  0  0  0  0  0  0  0
    2.5900    5.2795    0.0000 C   0  0  0  0  0  0  0  0  0  0  0  0
    2.8505    6.7567    0.0000 C   0  0  0  0  0  0  0  0  0  0  0  0
    1.7014    7.7209    0.0000 C   0  0  0  0  0  0  0  0  0  0  0  0
    1.9619    9.1981    0.0000 C   0  0  0  0  0  0  0  0  0  0  0  0
    3.3714    9.7112    0.0000 C   0  0  0  0  0  0  0  0  0  0  0  0
    3.7849   11.1530    0.0000 S   0  0  0  0  0  0  0  0  0  0  0  0
    5.2840   11.2054    0.0000 C   0  0  0  0  0  0  0  0  0  0  0  0
    6.1228   12.4490    0.0000 O   0  0  0  0  0  0  0  0  0  0  0  0
    5.7970    9.7959    0.0000 N   0  0  0  0  0  0  0  0  0  0  0  0
    4.6150    8.8724    0.0000 C   0  0  0  0  0  0  0  0  0  0  0  0
    4.6673    7.3733    0.0000 O   0  0  0  0  0  0  0  0  0  0  0  0
    0.2919    7.2079    0.0000 C   0  0  0  0  0  0  0  0  0  0  0  0
    0.0314    5.7307    0.0000 C   0  0  0  0  0  0  0  0  0  0  0  0
   -1.5000    0.0000    0.0000 O   0  0  0  0  0  0  0  0  0  0  0  0
  1  2  1  0
  2  3  2  0
  3  4  1  0
  3  5  1  0
  5  6  2  0
  6  7  1  0
  7  8  1  0
  7  9  2  0
  9 10  1  0
  6 11  1  0
 11 12  1  0
 12 13  1  0
 13 14  1  0
 13 15  1  0
 15 16  1  0
 16 17  1  0
 17 18  2  0
 18 19  1  0
 19 20  2  0
 20 21  1  0
 21 22  1  0
 22 23  1  0
 23 24  1  0
 24 25  2  0
 24 26  1  0
 26 27  1  0
 27 28  2  0
 20 29  1  0
 29 30  2  0
 13 31  1  0
  9  2  1  0
 30 17  1  0
 31  5  1  0
 27 22  1  0
M  END
>  <assay_description>  (295) 
Inhibition of human BSEP overexpressed in Sf9 cell membrane vesicles assessed as uptake of [3H]-taurocholate in presence of ATP measured after 15 to 20 mins by membrane vesicle transport assay

>  <molecule_pref_name>  (295) 
TROGLITAZONE

>  <canonical_smiles>  (295) 
Cc1c(C)c2c(c(C)c1O)CCC(C)(COc1ccc(CC3SC(=O)NC3=O)cc1)O2

>  <pchembl_value>  (295) 
5.52

>  <standard_type>  (295) 
IC50

>  <standard_relation>  (295) 
=

>  <standard_value>  (295) 
3000.0

>  <standard_units>  (295) 
nM

>  <target_pref_name>  (295) 
Bile salt export pump

>  <target_organism>  (295) 
Homo sapiens

$$$$
CHEMBL565
     RDKit          2D

 16 16  0  0  0  0  0  0  0  0999 V2000
    3.7500   -6.4952    0.0000 C   0  0  0  0  0  0  0  0  0  0  0  0
    4.5000   -5.1962    0.0000 C   0  0  0  0  0  0  0  0  0  0  0  0
    3.7500   -3.8971    0.0000 O   0  0  0  0  0  0  0  0  0  0  0  0
    4.5000   -2.5981    0.0000 C   0  0  0  0  0  0  0  0  0  0  0  0
    6.0000   -2.5981    0.0000 O   0  0  0  0  0  0  0  0  0  0  0  0
    3.7500   -1.2990    0.0000 C   0  0  0  0  0  0  0  0  0  0  0  0
    5.0490   -0.5490    0.0000 C   0  0  0  0  0  0  0  0  0  0  0  0
    2.4510   -2.0490    0.0000 C   0  0  0  0  0  0  0  0  0  0  0  0
    3.0000    0.0000    0.0000 O   0  0  0  0  0  0  0  0  0  0  0  0
    1.5000    0.0000    0.0000 C   0  0  0  0  0  0  0  0  0  0  0  0
    0.7500   -1.2990    0.0000 C   0  0  0  0  0  0  0  0  0  0  0  0
   -0.7500   -1.2990    0.0000 C   0  0  0  0  0  0  0  0  0  0  0  0
   -1.5000    0.0000    0.0000 C   0  0  0  0  0  0  0  0  0  0  0  0
   -3.0000    0.0000    0.0000 Cl  0  0  0  0  0  0  0  0  0  0  0  0
   -0.7500    1.2990    0.0000 C   0  0  0  0  0  0  0  0  0  0  0  0
    0.7500    1.2990    0.0000 C   0  0  0  0  0  0  0  0  0  0  0  0
  1  2  1  0
  2  3  1  0
  3  4  1  0
  4  5  2  0
  4  6  1  0
  6  7  1  0
  6  8  1  0
  6  9  1  0
  9 10  1  0
 10 11  2  0
 11 12  1  0
 12 13  2  0
 13 14  1  0
 13 15  1  0
 15 16  2  0
 16 10  1  0
M  END
>  <assay_description>  (296) 
Inhibition of human BSEP overexpressed in Sf9 cell membrane vesicles assessed as uptake of [3H]-taurocholate in presence of ATP measured after 15 to 20 mins by membrane vesicle transport assay

>  <molecule_pref_name>  (296) 
CLOFIBRATE

>  <canonical_smiles>  (296) 
CCOC(=O)C(C)(C)Oc1ccc(Cl)cc1

>  <pchembl_value>  (296) 
4.15

>  <standard_type>  (296) 
IC50

>  <standard_relation>  (296) 
=

>  <standard_value>  (296) 
71000.0

>  <standard_units>  (296) 
nM

>  <target_pref_name>  (296) 
Bile salt export pump

>  <target_organism>  (296) 
Homo sapiens

$$$$
CHEMBL729
     RDKit          2D

 46 49  0  0  0  0  0  0  0  0999 V2000
    3.0000    0.0000    0.0000 C   0  0  0  0  0  0  0  0  0  0  0  0
    1.5000    0.0000    0.0000 C   0  0  0  0  0  0  0  0  0  0  0  0
    0.7500   -1.2990    0.0000 C   0  0  0  0  0  0  0  0  0  0  0  0
   -0.7500   -1.2990    0.0000 C   0  0  0  0  0  0  0  0  0  0  0  0
   -1.5000    0.0000    0.0000 C   0  0  0  0  0  0  0  0  0  0  0  0
   -0.7500    1.2990    0.0000 C   0  0  0  0  0  0  0  0  0  0  0  0
   -1.5000    2.5981    0.0000 C   0  0  0  0  0  0  0  0  0  0  0  0
    0.7500    1.2990    0.0000 C   0  0  0  0  0  0  0  0  0  0  0  0
    1.5000    2.5981    0.0000 O   0  0  0  0  0  0  0  0  0  0  0  0
    3.0000    2.5981    0.0000 C   0  0  0  0  0  0  0  0  0  0  0  0
    3.7500    3.8971    0.0000 C   0  0  0  0  0  0  0  0  0  0  0  0
    3.0000    5.1962    0.0000 O   0  0  0  0  0  0  0  0  0  0  0  0
    5.2500    3.8971    0.0000 N   0  0  0  0  0  0  0  0  0  0  0  0
    6.0000    5.1962    0.0000 C   0  0  0  0  0  0  0  0  0  0  0  0
    7.5000    5.1962    0.0000 C   0  0  0  0  0  0  0  0  0  0  0  0
    8.2500    6.4952    0.0000 C   0  0  0  0  0  0  0  0  0  0  0  0
    9.7500    6.4952    0.0000 C   0  0  0  0  0  0  0  0  0  0  0  0
   10.5000    7.7942    0.0000 C   0  0  0  0  0  0  0  0  0  0  0  0
    9.7500    9.0933    0.0000 C   0  0  0  0  0  0  0  0  0  0  0  0
    8.2500    9.0933    0.0000 C   0  0  0  0  0  0  0  0  0  0  0  0
    7.5000    7.7942    0.0000 C   0  0  0  0  0  0  0  0  0  0  0  0
    5.2500    6.4952    0.0000 C   0  0  0  0  0  0  0  0  0  0  0  0
    3.7500    6.4952    0.0000 O   0  0  0  0  0  0  0  0  0  0  0  0
    6.0000    7.7942    0.0000 C   0  0  0  0  0  0  0  0  0  0  0  0
    5.2500    9.0933    0.0000 C   0  0  0  0  0  0  0  0  0  0  0  0
    6.0000   10.3923    0.0000 C   0  0  0  0  0  0  0  0  0  0  0  0
    5.2500   11.6913    0.0000 C   0  0  0  0  0  0  0  0  0  0  0  0
    6.0000   12.9904    0.0000 C   0  0  0  0  0  0  0  0  0  0  0  0
    5.2500   14.2894    0.0000 C   0  0  0  0  0  0  0  0  0  0  0  0
    3.7500   14.2894    0.0000 C   0  0  0  0  0  0  0  0  0  0  0  0
    3.0000   12.9904    0.0000 C   0  0  0  0  0  0  0  0  0  0  0  0
    3.7500   11.6913    0.0000 C   0  0  0  0  0  0  0  0  0  0  0  0
    3.7500    9.0933    0.0000 N   0  0  0  0  0  0  0  0  0  0  0  0
    3.0000   10.3923    0.0000 C   0  0  0  0  0  0  0  0  0  0  0  0
    3.2197   11.1586    0.0000 O   0  0  0  0  0  0  0  0  0  0  0  0
    1.5000   10.3923    0.0000 C   0  0  0  0  0  0  0  0  0  0  0  0
    0.7500   11.6913    0.0000 C   0  0  0  0  0  0  0  0  0  0  0  0
   -0.7500   11.6913    0.0000 C   0  0  0  0  0  0  0  0  0  0  0  0
    1.5000   12.9904    0.0000 C   0  0  0  0  0  0  0  0  0  0  0  0
    0.7500    9.0933    0.0000 N   0  0  0  0  0  0  0  0  0  0  0  0
   -0.7500    9.0933    0.0000 C   0  0  0  0  0  0  0  0  0  0  0  0
   -1.5000    7.7942    0.0000 C   0  0  0  0  0  0  0  0  0  0  0  0
   -0.7500    6.4952    0.0000 C   0  0  0  0  0  0  0  0  0  0  0  0
    0.7500    6.4952    0.0000 N   0  0  0  0  0  0  0  0  0  0  0  0
    1.5000    7.7942    0.0000 C   0  0  0  0  0  0  0  0  0  0  0  0
    3.0000    7.7942    0.0000 O   0  0  0  0  0  0  0  0  0  0  0  0
  1  2  1  0
  2  3  2  0
  3  4  1  0
  4  5  2  0
  5  6  1  0
  6  7  1  0
  6  8  2  0
  8  9  1  0
  9 10  1  0
 10 11  1  0
 11 12  2  0
 11 13  1  0
 13 14  1  0
 14 15  1  6
 15 16  1  0
 16 17  2  0
 17 18  1  0
 18 19  2  0
 19 20  1  0
 20 21  2  0
 14 22  1  0
 22 23  1  1
 22 24  1  0
 25 24  1  1
 25 26  1  0
 26 27  1  0
 27 28  2  0
 28 29  1  0
 29 30  2  0
 30 31  1  0
 31 32  2  0
 25 33  1  0
 33 34  1  0
 34 35  2  0
 36 34  1  1
 36 37  1  0
 37 38  1  0
 37 39  1  0
 36 40  1  0
 40 41  1  0
 41 42  1  0
 42 43  1  0
 43 44  1  0
 44 45  1  0
 45 46  2  0
  8  2  1  0
 21 16  1  0
 32 27  1  0
 45 40  1  0
M  END
>  <assay_description>  (297) 
Inhibition of human BSEP overexpressed in Sf9 cell membrane vesicles assessed as uptake of [3H]-taurocholate in presence of ATP measured after 15 to 20 mins by membrane vesicle transport assay

>  <molecule_pref_name>  (297) 
LOPINAVIR

>  <canonical_smiles>  (297) 
Cc1cccc(C)c1OCC(=O)N[C@@H](Cc1ccccc1)[C@@H](O)C[C@H](Cc1ccccc1)NC(=O)[C@H](C(C)C)N1CCCNC1=O

>  <pchembl_value>  (297) 
4.76

>  <standard_type>  (297) 
IC50

>  <standard_relation>  (297) 
=

>  <standard_value>  (297) 
17300.0

>  <standard_units>  (297) 
nM

>  <target_pref_name>  (297) 
Bile salt export pump

>  <target_organism>  (297) 
Homo sapiens

$$$$
CHEMBL1076241
     RDKit          2D

 51 55  0  0  0  0  0  0  0  0999 V2000
   -1.3632  -12.1594    0.0000 C   0  0  0  0  0  0  0  0  0  0  0  0
   -1.2064  -10.6676    0.0000 S   0  0  0  0  0  0  0  0  0  0  0  0
    0.2854  -10.8244    0.0000 O   0  0  0  0  0  0  0  0  0  0  0  0
   -2.6982  -10.5109    0.0000 O   0  0  0  0  0  0  0  0  0  0  0  0
   -1.0496   -9.1759    0.0000 C   0  0  0  0  0  0  0  0  0  0  0  0
    0.3207   -8.5658    0.0000 C   0  0  0  0  0  0  0  0  0  0  0  0
    0.4775   -7.0740    0.0000 N   0  0  0  0  0  0  0  0  0  0  0  0
    1.8478   -6.4639    0.0000 C   0  0  0  0  0  0  0  0  0  0  0  0
    2.0046   -4.9721    0.0000 C   0  0  0  0  0  0  0  0  0  0  0  0
    3.3037   -4.2221    0.0000 C   0  0  0  0  0  0  0  0  0  0  0  0
    2.9918   -2.7549    0.0000 C   0  0  0  0  0  0  0  0  0  0  0  0
    1.5000   -2.5981    0.0000 C   0  0  0  0  0  0  0  0  0  0  0  0
    0.7500   -1.2990    0.0000 C   0  0  0  0  0  0  0  0  0  0  0  0
    1.5000    0.0000    0.0000 C   0  0  0  0  0  0  0  0  0  0  0  0
    0.7500    1.2990    0.0000 C   0  0  0  0  0  0  0  0  0  0  0  0
   -0.7500    1.2990    0.0000 C   0  0  0  0  0  0  0  0  0  0  0  0
   -1.5000    2.5981    0.0000 N   0  0  0  0  0  0  0  0  0  0  0  0
   -3.0000    2.5981    0.0000 C   0  0  0  0  0  0  0  0  0  0  0  0
   -3.7500    1.2990    0.0000 N   0  0  0  0  0  0  0  0  0  0  0  0
   -3.0000    0.0000    0.0000 C   0  0  0  0  0  0  0  0  0  0  0  0
   -3.7500   -1.2990    0.0000 N   0  0  0  0  0  0  0  0  0  0  0  0
   -5.2500   -1.2990    0.0000 C   0  0  0  0  0  0  0  0  0  0  0  0
   -6.0000    0.0000    0.0000 C   0  0  0  0  0  0  0  0  0  0  0  0
   -7.5000    0.0000    0.0000 C   0  0  0  0  0  0  0  0  0  0  0  0
   -8.2500   -1.2990    0.0000 C   0  0  0  0  0  0  0  0  0  0  0  0
   -9.7500   -1.2990    0.0000 O   0  0  0  0  0  0  0  0  0  0  0  0
  -10.5000    0.0000    0.0000 C   0  0  0  0  0  0  0  0  0  0  0  0
  -12.0000    0.0000    0.0000 C   0  0  0  0  0  0  0  0  0  0  0  0
  -12.7500    1.2990    0.0000 C   0  0  0  0  0  0  0  0  0  0  0  0
  -14.2500    1.2990    0.0000 C   0  0  0  0  0  0  0  0  0  0  0  0
  -15.0000    0.0000    0.0000 C   0  0  0  0  0  0  0  0  0  0  0  0
  -14.2500   -1.2990    0.0000 C   0  0  0  0  0  0  0  0  0  0  0  0
  -15.0000   -2.5981    0.0000 F   0  0  0  0  0  0  0  0  0  0  0  0
  -12.7500   -1.2990    0.0000 C   0  0  0  0  0  0  0  0  0  0  0  0
   -7.5000   -2.5981    0.0000 C   0  0  0  0  0  0  0  0  0  0  0  0
   -8.2500   -3.8971    0.0000 Cl  0  0  0  0  0  0  0  0  0  0  0  0
   -6.0000   -2.5981    0.0000 C   0  0  0  0  0  0  0  0  0  0  0  0
   -1.5000    0.0000    0.0000 C   0  0  0  0  0  0  0  0  0  0  0  0
   -0.7500   -1.2990    0.0000 C   0  0  0  0  0  0  0  0  0  0  0  0
    0.8899   -3.9684    0.0000 O   0  0  0  0  0  0  0  0  0  0  0  0
    3.0000    5.0981    0.0000 C   0  0  0  0  0  0  0  0  0  0  0  0
    1.5000    5.0981    0.0000 C   0  0  0  0  0  0  0  0  0  0  0  0
    0.7500    3.7990    0.0000 C   0  0  0  0  0  0  0  0  0  0  0  0
   -0.7500    3.7990    0.0000 C   0  0  0  0  0  0  0  0  0  0  0  0
   -1.5000    5.0981    0.0000 C   0  0  0  0  0  0  0  0  0  0  0  0
   -3.0000    5.0981    0.0000 S   0  0  0  0  0  0  0  0  0  0  0  0
   -3.0000    6.5981    0.0000 O   0  0  0  0  0  0  0  0  0  0  0  0
   -3.0000    3.5981    0.0000 O   0  0  0  0  0  0  0  0  0  0  0  0
   -4.5000    5.0981    0.0000 O   0  0  0  0  0  0  0  0  0  0  0  0
   -0.7500    6.3971    0.0000 C   0  0  0  0  0  0  0  0  0  0  0  0
    0.7500    6.3971    0.0000 C   0  0  0  0  0  0  0  0  0  0  0  0
  1  2  1  0
  2  3  2  0
  2  4  2  0
  2  5  1  0
  5  6  1  0
  6  7  1  0
  7  8  1  0
  8  9  1  0
  9 10  2  0
 10 11  1  0
 11 12  2  0
 12 13  1  0
 13 14  2  0
 14 15  1  0
 15 16  2  0
 16 17  1  0
 17 18  2  0
 18 19  1  0
 19 20  2  0
 20 21  1  0
 21 22  1  0
 22 23  2  0
 23 24  1  0
 24 25  2  0
 25 26  1  0
 26 27  1  0
 27 28  1  0
 28 29  2  0
 29 30  1  0
 30 31  2  0
 31 32  1  0
 32 33  1  0
 32 34  2  0
 25 35  1  0
 35 36  1  0
 35 37  2  0
 20 38  1  0
 38 39  2  0
 12 40  1  0
 41 42  1  0
 42 43  2  0
 43 44  1  0
 44 45  2  0
 45 46  1  0
 46 47  2  0
 46 48  2  0
 46 49  1  0
 45 50  1  0
 50 51  2  0
 40  9  1  0
 51 42  1  0
 39 13  1  0
 38 16  1  0
 37 22  1  0
 34 28  1  0
M  END
>  <assay_description>  (298) 
Inhibition of human BSEP overexpressed in Sf9 cell membrane vesicles assessed as uptake of [3H]-taurocholate in presence of ATP measured after 15 to 20 mins by membrane vesicle transport assay

>  <molecule_pref_name>  (298) 
None

>  <canonical_smiles>  (298) 
CS(=O)(=O)CCNCc1ccc(-c2ccc3ncnc(Nc4ccc(OCc5cccc(F)c5)c(Cl)c4)c3c2)o1.Cc1ccc(S(=O)(=O)O)cc1

>  <pchembl_value>  (298) 
5.19

>  <standard_type>  (298) 
IC50

>  <standard_relation>  (298) 
=

>  <standard_value>  (298) 
6490.0

>  <standard_units>  (298) 
nM

>  <target_pref_name>  (298) 
Bile salt export pump

>  <target_organism>  (298) 
Homo sapiens

$$$$
CHEMBL160
     RDKit          2D

 85 85  0  0  0  0  0  0  0  0999 V2000
   12.3901   -5.1962    0.0000 C   0  0  0  0  0  0  0  0  0  0  0  0
   11.6401   -3.8971    0.0000 C   0  0  0  0  0  0  0  0  0  0  0  0
   10.1401   -3.8971    0.0000 C   0  0  0  0  0  0  0  0  0  0  0  0
    9.3901   -2.5981    0.0000 C   0  0  0  0  0  0  0  0  0  0  0  0
   10.1401   -1.2990    0.0000 C   0  0  0  0  0  0  0  0  0  0  0  0
   11.6401   -1.2990    0.0000 C   0  0  0  0  0  0  0  0  0  0  0  0
    9.3901    0.0000    0.0000 C   0  0  0  0  0  0  0  0  0  0  0  0
   10.1401    1.2990    0.0000 O   0  0  0  0  0  0  0  0  0  0  0  0
    7.8901    0.0000    0.0000 C   0  0  0  0  0  0  0  0  0  0  0  0
    7.7475    1.4932    0.0000 C   0  0  0  0  0  0  0  0  0  0  0  0
    9.2204    1.7771    0.0000 O   0  0  0  0  0  0  0  0  0  0  0  0
    7.3249    2.9324    0.0000 N   0  0  0  0  0  0  0  0  0  0  0  0
    6.6376    4.2657    0.0000 C   0  0  0  0  0  0  0  0  0  0  0  0
    7.8994    5.0767    0.0000 C   0  0  0  0  0  0  0  0  0  0  0  0
    9.2327    4.3893    0.0000 C   0  0  0  0  0  0  0  0  0  0  0  0
    5.7103    5.4448    0.0000 C   0  0  0  0  0  0  0  0  0  0  0  0
    6.7959    6.4799    0.0000 O   0  0  0  0  0  0  0  0  0  0  0  0
    4.5767    6.4271    0.0000 N   0  0  0  0  0  0  0  0  0  0  0  0
    5.4468    7.6489    0.0000 C   0  0  0  0  0  0  0  0  0  0  0  0
    3.2777    7.1771    0.0000 C   0  0  0  0  0  0  0  0  0  0  0  0
    1.8602    7.6677    0.0000 C   0  0  0  0  0  0  0  0  0  0  0  0
    2.2138    9.1254    0.0000 O   0  0  0  0  0  0  0  0  0  0  0  0
    0.3754    7.8811    0.0000 N   0  0  0  0  0  0  0  0  0  0  0  0
    0.4468    9.3794    0.0000 C   0  0  0  0  0  0  0  0  0  0  0  0
   -1.1229    7.8098    0.0000 C   0  0  0  0  0  0  0  0  0  0  0  0
   -1.3363    9.2945    0.0000 C   0  0  0  0  0  0  0  0  0  0  0  0
   -0.1573   10.2217    0.0000 C   0  0  0  0  0  0  0  0  0  0  0  0
   -0.3707   11.7065    0.0000 C   0  0  0  0  0  0  0  0  0  0  0  0
    1.2353    9.6642    0.0000 C   0  0  0  0  0  0  0  0  0  0  0  0
   -2.5806    7.4561    0.0000 C   0  0  0  0  0  0  0  0  0  0  0  0
   -3.0712    8.8736    0.0000 O   0  0  0  0  0  0  0  0  0  0  0  0
   -3.9450    6.8330    0.0000 N   0  0  0  0  0  0  0  0  0  0  0  0
   -5.1669    5.9629    0.0000 C   0  0  0  0  0  0  0  0  0  0  0  0
   -6.1492    7.0966    0.0000 C   0  0  0  0  0  0  0  0  0  0  0  0
   -5.6586    8.5141    0.0000 C   0  0  0  0  0  0  0  0  0  0  0  0
   -7.6221    6.8127    0.0000 C   0  0  0  0  0  0  0  0  0  0  0  0
   -6.2020    4.8773    0.0000 C   0  0  0  0  0  0  0  0  0  0  0  0
   -7.3811    5.8046    0.0000 O   0  0  0  0  0  0  0  0  0  0  0  0
   -7.0130    3.6154    0.0000 N   0  0  0  0  0  0  0  0  0  0  0  0
   -8.3462    4.3028    0.0000 C   0  0  0  0  0  0  0  0  0  0  0  0
   -7.5705    2.2229    0.0000 C   0  0  0  0  0  0  0  0  0  0  0  0
   -9.0097    2.6455    0.0000 C   0  0  0  0  0  0  0  0  0  0  0  0
   -9.3634    4.1032    0.0000 C   0  0  0  0  0  0  0  0  0  0  0  0
  -10.8026    4.5258    0.0000 C   0  0  0  0  0  0  0  0  0  0  0  0
   -8.2778    5.1383    0.0000 C   0  0  0  0  0  0  0  0  0  0  0  0
   -7.8544    0.7500    0.0000 C   0  0  0  0  0  0  0  0  0  0  0  0
   -9.3476    0.8926    0.0000 O   0  0  0  0  0  0  0  0  0  0  0  0
   -7.8544   -0.7500    0.0000 N   0  0  0  0  0  0  0  0  0  0  0  0
   -7.5705   -2.2229    0.0000 C   0  0  0  0  0  0  0  0  0  0  0  0
   -9.0097   -2.6455    0.0000 C   0  0  0  0  0  0  0  0  0  0  0  0
   -7.0130   -3.6154    0.0000 C   0  0  0  0  0  0  0  0  0  0  0  0
   -8.3462   -4.3028    0.0000 O   0  0  0  0  0  0  0  0  0  0  0  0
   -6.2020   -4.8773    0.0000 N   0  0  0  0  0  0  0  0  0  0  0  0
   -5.1669   -5.9629    0.0000 C   0  0  0  0  0  0  0  0  0  0  0  0
   -6.1492   -7.0966    0.0000 C   0  0  0  0  0  0  0  0  0  0  0  0
   -3.9450   -6.8330    0.0000 C   0  0  0  0  0  0  0  0  0  0  0  0
   -4.6950   -8.1320    0.0000 O   0  0  0  0  0  0  0  0  0  0  0  0
   -2.5806   -7.4561    0.0000 N   0  0  0  0  0  0  0  0  0  0  0  0
   -3.0712   -8.8736    0.0000 C   0  0  0  0  0  0  0  0  0  0  0  0
   -1.1229   -7.8098    0.0000 C   0  0  0  0  0  0  0  0  0  0  0  0
   -1.3363   -9.2945    0.0000 C   0  0  0  0  0  0  0  0  0  0  0  0
   -2.7289   -9.8520    0.0000 C   0  0  0  0  0  0  0  0  0  0  0  0
   -2.9424  -11.3367    0.0000 C   0  0  0  0  0  0  0  0  0  0  0  0
   -3.9080   -8.9248    0.0000 C   0  0  0  0  0  0  0  0  0  0  0  0
    0.3754   -7.8811    0.0000 C   0  0  0  0  0  0  0  0  0  0  0  0
    0.4468   -9.3794    0.0000 O   0  0  0  0  0  0  0  0  0  0  0  0
    1.8602   -7.6677    0.0000 N   0  0  0  0  0  0  0  0  0  0  0  0
    2.2138   -9.1254    0.0000 C   0  0  0  0  0  0  0  0  0  0  0  0
    3.2777   -7.1771    0.0000 C   0  0  0  0  0  0  0  0  0  0  0  0
    3.9008   -8.5415    0.0000 C   0  0  0  0  0  0  0  0  0  0  0  0
    3.0307   -9.7634    0.0000 C   0  0  0  0  0  0  0  0  0  0  0  0
    3.6538  -11.1278    0.0000 C   0  0  0  0  0  0  0  0  0  0  0  0
    1.5375   -9.6208    0.0000 C   0  0  0  0  0  0  0  0  0  0  0  0
    4.5767   -6.4271    0.0000 C   0  0  0  0  0  0  0  0  0  0  0  0
    5.4468   -7.6489    0.0000 O   0  0  0  0  0  0  0  0  0  0  0  0
    5.7103   -5.4448    0.0000 N   0  0  0  0  0  0  0  0  0  0  0  0
    6.7959   -6.4799    0.0000 C   0  0  0  0  0  0  0  0  0  0  0  0
    6.6376   -4.2657    0.0000 C   0  0  0  0  0  0  0  0  0  0  0  0
    7.8994   -5.0767    0.0000 C   0  0  0  0  0  0  0  0  0  0  0  0
    7.8281   -6.5750    0.0000 C   0  0  0  0  0  0  0  0  0  0  0  0
    9.2327   -4.3893    0.0000 C   0  0  0  0  0  0  0  0  0  0  0  0
    7.3249   -2.9324    0.0000 C   0  0  0  0  0  0  0  0  0  0  0  0
    8.7175   -3.4899    0.0000 O   0  0  0  0  0  0  0  0  0  0  0  0
    7.7475   -1.4932    0.0000 N   0  0  0  0  0  0  0  0  0  0  0  0
    9.2204   -1.7771    0.0000 C   0  0  0  0  0  0  0  0  0  0  0  0
  1  2  1  0
  2  3  2  0
  3  4  1  0
  4  5  1  0
  5  6  1  6
  5  7  1  0
  7  8  1  6
  7  9  1  0
  9 10  1  6
 10 11  2  0
 10 12  1  0
 12 13  1  0
 13 14  1  6
 14 15  1  0
 13 16  1  0
 16 17  2  0
 16 18  1  0
 18 19  1  0
 18 20  1  0
 20 21  1  0
 21 22  2  0
 21 23  1  0
 23 24  1  0
 23 25  1  0
 25 26  1  6
 26 27  1  0
 27 28  1  0
 27 29  1  0
 25 30  1  0
 30 31  2  0
 30 32  1  0
 32 33  1  0
 33 34  1  6
 34 35  1  0
 34 36  1  0
 33 37  1  0
 37 38  2  0
 37 39  1  0
 39 40  1  0
 39 41  1  0
 41 42  1  6
 42 43  1  0
 43 44  1  0
 43 45  1  0
 41 46  1  0
 46 47  2  0
 46 48  1  0
 48 49  1  0
 49 50  1  6
 49 51  1  0
 51 52  2  0
 51 53  1  0
 53 54  1  0
 54 55  1  1
 54 56  1  0
 56 57  2  0
 56 58  1  0
 58 59  1  0
 58 60  1  0
 60 61  1  6
 61 62  1  0
 62 63  1  0
 62 64  1  0
 60 65  1  0
 65 66  2  0
 65 67  1  0
 67 68  1  0
 67 69  1  0
 69 70  1  6
 70 71  1  0
 71 72  1  0
 71 73  1  0
 69 74  1  0
 74 75  2  0
 74 76  1  0
 76 77  1  0
 76 78  1  0
 78 79  1  6
 79 80  1  0
 79 81  1  0
 78 82  1  0
 82 83  2  0
 82 84  1  0
 84 85  1  0
 84  9  1  0
M  END
>  <assay_description>  (299) 
Inhibition of human BSEP overexpressed in Sf9 cell membrane vesicles assessed as uptake of [3H]-taurocholate in presence of ATP measured after 15 to 20 mins by membrane vesicle transport assay

>  <molecule_pref_name>  (299) 
CYCLOSPORINE

>  <canonical_smiles>  (299) 
C/C=C/C[C@@H](C)[C@@H](O)[C@H]1C(=O)N[C@@H](CC)C(=O)N(C)CC(=O)N(C)[C@@H](CC(C)C)C(=O)N[C@@H](C(C)C)C(=O)N(C)[C@@H](CC(C)C)C(=O)N[C@@H](C)C(=O)N[C@H](C)C(=O)N(C)[C@@H](CC(C)C)C(=O)N(C)[C@@H](CC(C)C)C(=O)N(C)[C@@H](C(C)C)C(=O)N1C

>  <pchembl_value>  (299) 
6.30

>  <standard_type>  (299) 
IC50

>  <standard_relation>  (299) 
=

>  <standard_value>  (299) 
500.0

>  <standard_units>  (299) 
nM

>  <target_pref_name>  (299) 
Bile salt export pump

>  <target_organism>  (299) 
Homo sapiens

$$$$
CHEMBL1660
     RDKit          2D

 63 68  0  0  0  0  0  0  0  0999 V2000
    0.4940    8.3646    0.0000 C   0  0  0  0  0  0  0  0  0  0  0  0
   -1.0057    8.3332    0.0000 O   0  0  0  0  0  0  0  0  0  0  0  0
   -1.7283    7.0188    0.0000 C   0  0  0  0  0  0  0  0  0  0  0  0
   -0.5195    6.1307    0.0000 C   0  0  0  0  0  0  0  0  0  0  0  0
    0.4184    4.9601    0.0000 C   0  0  0  0  0  0  0  0  0  0  0  0
    1.0212    3.5866    0.0000 O   0  0  0  0  0  0  0  0  0  0  0  0
    0.3943    1.2135    0.0000 C   0  0  0  0  0  0  0  0  0  0  0  0
    0.8578    2.6401    0.0000 C   0  0  0  0  0  0  0  0  0  0  0  0
    1.2760    0.0000    0.0000 O   0  0  0  0  0  0  0  0  0  0  0  0
    0.3943   -1.2135    0.0000 C   0  0  0  0  0  0  0  0  0  0  0  0
    0.7062   -2.6807    0.0000 C   0  0  0  0  0  0  0  0  0  0  0  0
    2.1328   -3.1443    0.0000 C   0  0  0  0  0  0  0  0  0  0  0  0
   -0.4086   -3.6844    0.0000 C   0  0  0  0  0  0  0  0  0  0  0  0
   -0.0967   -5.1517    0.0000 O   0  0  0  0  0  0  0  0  0  0  0  0
   -1.8351   -3.2209    0.0000 C   0  0  0  0  0  0  0  0  0  0  0  0
   -2.9499   -4.2246    0.0000 C   0  0  0  0  0  0  0  0  0  0  0  0
   -2.6380   -5.6918    0.0000 O   0  0  0  0  0  0  0  0  0  0  0  0
   -4.3764   -3.7611    0.0000 C   0  0  0  0  0  0  0  0  0  0  0  0
   -4.6883   -2.2939    0.0000 C   0  0  0  0  0  0  0  0  0  0  0  0
   -6.1149   -1.8303    0.0000 C   0  0  0  0  0  0  0  0  0  0  0  0
   -6.4268   -0.3631    0.0000 N   0  0  0  0  0  0  0  0  0  0  0  0
   -7.8533    0.1004    0.0000 N   0  0  0  0  0  0  0  0  0  0  0  0
   -8.1652    1.5676    0.0000 C   0  0  0  0  0  0  0  0  0  0  0  0
   -9.5918    2.0312    0.0000 C   0  0  0  0  0  0  0  0  0  0  0  0
  -10.7065    1.0275    0.0000 N   0  0  0  0  0  0  0  0  0  0  0  0
  -12.1331    1.4910    0.0000 C   0  0  0  0  0  0  0  0  0  0  0  0
  -13.3466    0.6093    0.0000 C   0  0  0  0  0  0  0  0  0  0  0  0
  -14.5601    1.4910    0.0000 C   0  0  0  0  0  0  0  0  0  0  0  0
  -14.0966    2.9176    0.0000 C   0  0  0  0  0  0  0  0  0  0  0  0
  -12.5966    2.9176    0.0000 C   0  0  0  0  0  0  0  0  0  0  0  0
  -10.3946   -0.4398    0.0000 C   0  0  0  0  0  0  0  0  0  0  0  0
   -8.9681   -0.9033    0.0000 C   0  0  0  0  0  0  0  0  0  0  0  0
   -3.5736   -1.2902    0.0000 C   0  0  0  0  0  0  0  0  0  0  0  0
   -3.8855    0.1771    0.0000 O   0  0  0  0  0  0  0  0  0  0  0  0
   -2.1470   -1.7537    0.0000 C   0  0  0  0  0  0  0  0  0  0  0  0
   -1.0323   -0.7500    0.0000 C   0  0  0  0  0  0  0  0  0  0  0  0
   -1.0323    0.7500    0.0000 C   0  0  0  0  0  0  0  0  0  0  0  0
   -2.2458    1.6317    0.0000 O   0  0  0  0  0  0  0  0  0  0  0  0
   -5.8674   -3.5964    0.0000 N   0  0  0  0  0  0  0  0  0  0  0  0
   -7.2649   -3.0515    0.0000 C   0  0  0  0  0  0  0  0  0  0  0  0
   -7.9876   -4.3660    0.0000 O   0  0  0  0  0  0  0  0  0  0  0  0
   -8.4738   -2.1635    0.0000 C   0  0  0  0  0  0  0  0  0  0  0  0
   -9.5120   -3.2461    0.0000 C   0  0  0  0  0  0  0  0  0  0  0  0
   -9.4116   -0.9928    0.0000 C   0  0  0  0  0  0  0  0  0  0  0  0
  -10.0145    0.3807    0.0000 C   0  0  0  0  0  0  0  0  0  0  0  0
  -10.2413    1.8634    0.0000 C   0  0  0  0  0  0  0  0  0  0  0  0
  -10.0767    3.3544    0.0000 C   0  0  0  0  0  0  0  0  0  0  0  0
  -11.5334    3.7122    0.0000 C   0  0  0  0  0  0  0  0  0  0  0  0
   -9.5318    4.7519    0.0000 C   0  0  0  0  0  0  0  0  0  0  0  0
  -10.8462    5.4746    0.0000 O   0  0  0  0  0  0  0  0  0  0  0  0
   -8.6437    5.9608    0.0000 C   0  0  0  0  0  0  0  0  0  0  0  0
   -9.7263    6.9990    0.0000 C   0  0  0  0  0  0  0  0  0  0  0  0
   -7.4731    6.8986    0.0000 C   0  0  0  0  0  0  0  0  0  0  0  0
   -8.2501    8.1817    0.0000 O   0  0  0  0  0  0  0  0  0  0  0  0
   -6.0995    7.5015    0.0000 C   0  0  0  0  0  0  0  0  0  0  0  0
   -6.5180    8.9419    0.0000 C   0  0  0  0  0  0  0  0  0  0  0  0
   -4.6168    7.7283    0.0000 C   0  0  0  0  0  0  0  0  0  0  0  0
   -4.6482    9.2280    0.0000 O   0  0  0  0  0  0  0  0  0  0  0  0
   -3.3651   10.0050    0.0000 C   0  0  0  0  0  0  0  0  0  0  0  0
   -3.3965   11.5047    0.0000 C   0  0  0  0  0  0  0  0  0  0  0  0
   -1.9724    9.4480    0.0000 O   0  0  0  0  0  0  0  0  0  0  0  0
   -3.1259    7.5637    0.0000 C   0  0  0  0  0  0  0  0  0  0  0  0
   -2.5931    8.9659    0.0000 C   0  0  0  0  0  0  0  0  0  0  0  0
  1  2  1  0
  3  2  1  1
  3  4  1  0
  4  5  2  0
  5  6  1  0
  6  7  1  0
  7  8  1  6
  7  9  1  0
  9 10  1  0
 10 11  2  0
 11 12  1  0
 11 13  1  0
 13 14  1  0
 13 15  2  0
 15 16  1  0
 16 17  1  0
 16 18  2  0
 18 19  1  0
 19 20  1  0
 20 21  2  0
 21 22  1  0
 22 23  1  0
 23 24  1  0
 24 25  1  0
 25 26  1  0
 26 27  1  0
 27 28  1  0
 28 29  1  0
 29 30  1  0
 25 31  1  0
 31 32  1  0
 19 33  2  0
 33 34  1  0
 33 35  1  0
 35 36  2  0
 36 37  1  0
 37 38  2  0
 18 39  1  0
 39 40  1  0
 40 41  2  0
 40 42  1  0
 42 43  1  0
 42 44  2  0
 44 45  1  0
 45 46  2  0
 46 47  1  0
 47 48  1  6
 47 49  1  0
 49 50  1  6
 49 51  1  0
 51 52  1  1
 51 53  1  0
 53 54  1  1
 53 55  1  0
 55 56  1  1
 55 57  1  0
 57 58  1  6
 58 59  1  0
 59 60  1  0
 59 61  2  0
 57 62  1  0
 62 63  1  6
 62  3  1  0
 37  7  1  0
 36 10  1  0
 35 15  1  0
 32 22  1  0
 30 26  1  0
M  END
>  <assay_description>  (300) 
Inhibition of human BSEP overexpressed in Sf9 cell membrane vesicles assessed as uptake of [3H]-taurocholate in presence of ATP measured after 15 to 20 mins by membrane vesicle transport assay

>  <molecule_pref_name>  (300) 
RIFAPENTINE

>  <canonical_smiles>  (300) 
CO[C@H]1/C=C/O[C@@]2(C)Oc3c(C)c(O)c4c(O)c(c(/C=N/N5CCN(C6CCCC6)CC5)c(O)c4c3C2=O)NC(=O)/C(C)=C\C=C\[C@H](C)[C@H](O)[C@@H](C)[C@@H](O)[C@@H](C)[C@H](OC(C)=O)[C@@H]1C

>  <pchembl_value>  (300) 
5.00

>  <standard_type>  (300) 
IC50

>  <standard_relation>  (300) 
=

>  <standard_value>  (300) 
9910.0

>  <standard_units>  (300) 
nM

>  <target_pref_name>  (300) 
Bile salt export pump

>  <target_organism>  (300) 
Homo sapiens

$$$$
CHEMBL893
     RDKit          2D

 30 33  0  0  0  0  0  0  0  0999 V2000
   -5.8185    2.8740    0.0000 C   0  0  0  0  0  0  0  0  0  0  0  0
   -5.5838    4.3555    0.0000 C   0  0  0  0  0  0  0  0  0  0  0  0
   -6.6445    5.4162    0.0000 O   0  0  0  0  0  0  0  0  0  0  0  0
   -5.9635    6.7527    0.0000 N   0  0  0  0  0  0  0  0  0  0  0  0
   -4.4820    6.5180    0.0000 C   0  0  0  0  0  0  0  0  0  0  0  0
   -3.4213    7.5787    0.0000 C   0  0  0  0  0  0  0  0  0  0  0  0
   -3.8096    9.0276    0.0000 C   0  0  0  0  0  0  0  0  0  0  0  0
   -5.2584    9.4158    0.0000 Cl  0  0  0  0  0  0  0  0  0  0  0  0
   -2.7489   10.0882    0.0000 C   0  0  0  0  0  0  0  0  0  0  0  0
   -1.3000    9.7000    0.0000 C   0  0  0  0  0  0  0  0  0  0  0  0
   -0.9118    8.2511    0.0000 C   0  0  0  0  0  0  0  0  0  0  0  0
   -1.9724    7.1905    0.0000 C   0  0  0  0  0  0  0  0  0  0  0  0
   -1.4667    5.9388    0.0000 Cl  0  0  0  0  0  0  0  0  0  0  0  0
   -4.2473    5.0365    0.0000 C   0  0  0  0  0  0  0  0  0  0  0  0
   -2.9108    4.3555    0.0000 C   0  0  0  0  0  0  0  0  0  0  0  0
   -1.6974    4.9473    0.0000 O   0  0  0  0  0  0  0  0  0  0  0  0
   -2.8323    2.8576    0.0000 N   0  0  0  0  0  0  0  0  0  0  0  0
   -1.4958    2.1766    0.0000 C   0  0  0  0  0  0  0  0  0  0  0  0
   -0.0692    2.6401    0.0000 C   0  0  0  0  0  0  0  0  0  0  0  0
    0.6118    3.9766    0.0000 O   0  0  0  0  0  0  0  0  0  0  0  0
    0.3943    1.2135    0.0000 N   0  0  0  0  0  0  0  0  0  0  0  0
    1.2760    0.0000    0.0000 C   0  0  0  0  0  0  0  0  0  0  0  0
    2.7760    0.0000    0.0000 C   0  0  0  0  0  0  0  0  0  0  0  0
    3.5260    1.2990    0.0000 O   0  0  0  0  0  0  0  0  0  0  0  0
    3.5260   -1.2990    0.0000 O   0  0  0  0  0  0  0  0  0  0  0  0
    0.3943   -1.2135    0.0000 C   0  0  0  0  0  0  0  0  0  0  0  0
    1.6933   -1.9635    0.0000 C   0  0  0  0  0  0  0  0  0  0  0  0
   -0.2158   -2.5838    0.0000 C   0  0  0  0  0  0  0  0  0  0  0  0
   -1.0323   -0.7500    0.0000 S   0  0  0  0  0  0  0  0  0  0  0  0
   -1.0323    0.7500    0.0000 C   0  0  0  0  0  0  0  0  0  0  0  0
  1  2  1  0
  2  3  1  0
  3  4  1  0
  4  5  2  0
  5  6  1  0
  6  7  2  0
  7  8  1  0
  7  9  1  0
  9 10  2  0
 10 11  1  0
 11 12  2  0
 12 13  1  0
  5 14  1  0
 14 15  1  0
 15 16  2  0
 15 17  1  0
 18 17  1  6
 18 19  1  0
 19 20  2  0
 19 21  1  0
 21 22  1  0
 22 23  1  1
 23 24  2  0
 23 25  1  0
 22 26  1  0
 26 27  1  0
 26 28  1  0
 26 29  1  0
 30 29  1  6
 14  2  2  0
 30 18  1  0
 12  6  1  0
 30 21  1  0
M  END
>  <assay_description>  (301) 
Inhibition of human BSEP overexpressed in Sf9 cell membrane vesicles assessed as uptake of [3H]-taurocholate in presence of ATP measured after 15 to 20 mins by membrane vesicle transport assay

>  <molecule_pref_name>  (301) 
DICLOXACILLIN

>  <canonical_smiles>  (301) 
Cc1onc(-c2c(Cl)cccc2Cl)c1C(=O)N[C@@H]1C(=O)N2[C@@H](C(=O)O)C(C)(C)S[C@H]12

>  <pchembl_value>  (301) 
4.25

>  <standard_type>  (301) 
IC50

>  <standard_relation>  (301) 
=

>  <standard_value>  (301) 
56400.0

>  <standard_units>  (301) 
nM

>  <target_pref_name>  (301) 
Bile salt export pump

>  <target_organism>  (301) 
Homo sapiens

$$$$
CHEMBL1397
     RDKit          2D

 51 57  0  0  0  0  0  0  0  0999 V2000
    0.3207   -8.5658    0.0000 C   0  0  0  0  0  0  0  0  0  0  0  0
    0.4775   -7.0740    0.0000 C   0  0  0  0  0  0  0  0  0  0  0  0
    1.8478   -6.4639    0.0000 C   0  0  0  0  0  0  0  0  0  0  0  0
    3.0613   -7.3456    0.0000 C   0  0  0  0  0  0  0  0  0  0  0  0
    2.9046   -8.8373    0.0000 C   0  0  0  0  0  0  0  0  0  0  0  0
    4.4317   -6.7354    0.0000 O   0  0  0  0  0  0  0  0  0  0  0  0
    2.0046   -4.9721    0.0000 N   0  0  0  0  0  0  0  0  0  0  0  0
    3.3037   -4.2221    0.0000 N   0  0  0  0  0  0  0  0  0  0  0  0
    2.9918   -2.7549    0.0000 C   0  0  0  0  0  0  0  0  0  0  0  0
    1.5000   -2.5981    0.0000 N   0  0  0  0  0  0  0  0  0  0  0  0
    0.7500   -1.2990    0.0000 C   0  0  0  0  0  0  0  0  0  0  0  0
    1.5000    0.0000    0.0000 C   0  0  0  0  0  0  0  0  0  0  0  0
    0.7500    1.2990    0.0000 C   0  0  0  0  0  0  0  0  0  0  0  0
   -0.7500    1.2990    0.0000 C   0  0  0  0  0  0  0  0  0  0  0  0
   -1.5000    2.5981    0.0000 N   0  0  0  0  0  0  0  0  0  0  0  0
   -0.7500    3.8971    0.0000 C   0  0  0  0  0  0  0  0  0  0  0  0
   -1.5000    5.1962    0.0000 C   0  0  0  0  0  0  0  0  0  0  0  0
   -3.0000    5.1962    0.0000 N   0  0  0  0  0  0  0  0  0  0  0  0
   -3.7500    6.4952    0.0000 C   0  0  0  0  0  0  0  0  0  0  0  0
   -3.0000    7.7942    0.0000 C   0  0  0  0  0  0  0  0  0  0  0  0
   -3.7500    9.0933    0.0000 C   0  0  0  0  0  0  0  0  0  0  0  0
   -5.2500    9.0933    0.0000 C   0  0  0  0  0  0  0  0  0  0  0  0
   -6.0000   10.3923    0.0000 O   0  0  0  0  0  0  0  0  0  0  0  0
   -5.2500   11.6913    0.0000 C   0  0  0  0  0  0  0  0  0  0  0  0
   -6.0000   12.9904    0.0000 C   0  0  0  0  0  0  0  0  0  0  0  0
   -7.4918   13.1472    0.0000 C   0  0  0  0  0  0  0  0  0  0  0  0
   -7.8037   14.6144    0.0000 O   0  0  0  0  0  0  0  0  0  0  0  0
   -6.5046   15.3644    0.0000 C   0  0  0  0  0  0  0  0  0  0  0  0
   -5.3899   16.3681    0.0000 C   0  0  0  0  0  0  0  0  0  0  0  0
   -3.9633   15.9046    0.0000 N   0  0  0  0  0  0  0  0  0  0  0  0
   -2.7498   16.7862    0.0000 C   0  0  0  0  0  0  0  0  0  0  0  0
   -1.5363   15.9046    0.0000 N   0  0  0  0  0  0  0  0  0  0  0  0
   -1.9998   14.4780    0.0000 C   0  0  0  0  0  0  0  0  0  0  0  0
   -3.4998   14.4780    0.0000 N   0  0  0  0  0  0  0  0  0  0  0  0
   -7.3863   16.5779    0.0000 C   0  0  0  0  0  0  0  0  0  0  0  0
   -6.7762   17.9482    0.0000 C   0  0  0  0  0  0  0  0  0  0  0  0
   -7.6579   19.1618    0.0000 C   0  0  0  0  0  0  0  0  0  0  0  0
   -9.1496   19.0050    0.0000 C   0  0  0  0  0  0  0  0  0  0  0  0
  -10.0313   20.2185    0.0000 F   0  0  0  0  0  0  0  0  0  0  0  0
   -9.7598   17.6347    0.0000 C   0  0  0  0  0  0  0  0  0  0  0  0
   -8.8781   16.4211    0.0000 C   0  0  0  0  0  0  0  0  0  0  0  0
   -9.4882   15.0508    0.0000 F   0  0  0  0  0  0  0  0  0  0  0  0
   -5.3899   14.3607    0.0000 C   0  0  0  0  0  0  0  0  0  0  0  0
   -6.0000    7.7942    0.0000 C   0  0  0  0  0  0  0  0  0  0  0  0
   -5.2500    6.4952    0.0000 C   0  0  0  0  0  0  0  0  0  0  0  0
   -3.7500    3.8971    0.0000 C   0  0  0  0  0  0  0  0  0  0  0  0
   -3.0000    2.5981    0.0000 C   0  0  0  0  0  0  0  0  0  0  0  0
   -1.5000    0.0000    0.0000 C   0  0  0  0  0  0  0  0  0  0  0  0
   -0.7500   -1.2990    0.0000 C   0  0  0  0  0  0  0  0  0  0  0  0
    0.8899   -3.9684    0.0000 C   0  0  0  0  0  0  0  0  0  0  0  0
   -0.5773   -4.2803    0.0000 O   0  0  0  0  0  0  0  0  0  0  0  0
  1  2  1  0
  3  2  1  6
  3  4  1  0
  4  5  1  1
  4  6  1  0
  3  7  1  0
  7  8  1  0
  8  9  2  0
  9 10  1  0
 10 11  1  0
 11 12  2  0
 12 13  1  0
 13 14  2  0
 14 15  1  0
 15 16  1  0
 16 17  1  0
 17 18  1  0
 18 19  1  0
 19 20  2  0
 20 21  1  0
 21 22  2  0
 22 23  1  0
 23 24  1  0
 25 24  1  6
 25 26  1  0
 26 27  1  0
 27 28  1  0
 28 29  1  6
 29 30  1  0
 30 31  1  0
 31 32  2  0
 32 33  1  0
 33 34  2  0
 28 35  1  0
 35 36  2  0
 36 37  1  0
 37 38  2  0
 38 39  1  0
 38 40  1  0
 40 41  2  0
 41 42  1  0
 28 43  1  0
 22 44  1  0
 44 45  2  0
 18 46  1  0
 46 47  1  0
 14 48  1  0
 48 49  2  0
 10 50  1  0
 50 51  2  0
 50  7  1  0
 49 11  1  0
 47 15  1  0
 45 19  1  0
 43 25  1  0
 34 30  1  0
 41 35  1  0
M  END
>  <assay_description>  (302) 
Inhibition of human BSEP overexpressed in Sf9 cell membrane vesicles assessed as uptake of [3H]-taurocholate in presence of ATP measured after 15 to 20 mins by membrane vesicle transport assay

>  <molecule_pref_name>  (302) 
POSACONAZOLE

>  <canonical_smiles>  (302) 
CC[C@@H]([C@H](C)O)n1ncn(-c2ccc(N3CCN(c4ccc(OC[C@@H]5CO[C@@](Cn6cncn6)(c6ccc(F)cc6F)C5)cc4)CC3)cc2)c1=O

>  <pchembl_value>  (302) 
5.09

>  <standard_type>  (302) 
IC50

>  <standard_relation>  (302) 
=

>  <standard_value>  (302) 
8100.0

>  <standard_units>  (302) 
nM

>  <target_pref_name>  (302) 
Bile salt export pump

>  <target_organism>  (302) 
Homo sapiens

$$$$
CHEMBL1200480
     RDKit          2D

 75 78  0  0  0  0  0  0  0  0999 V2000
    9.4466    0.0000    0.0000 C   0  0  0  0  0  0  0  0  0  0  0  0
   10.7457    0.7500    0.0000 C   0  0  0  0  0  0  0  0  0  0  0  0
   10.7457    2.2500    0.0000 O   0  0  0  0  0  0  0  0  0  0  0  0
   12.0447   -0.0000    0.0000 O   0  0  0  0  0  0  0  0  0  0  0  0
    7.0443   -1.2990    0.0000 C   0  0  0  0  0  0  0  0  0  0  0  0
    6.2943    0.0000    0.0000 C   0  0  0  0  0  0  0  0  0  0  0  0
    7.0443    1.2990    0.0000 O   0  0  0  0  0  0  0  0  0  0  0  0
    4.7943    0.0000    0.0000 C   0  0  0  0  0  0  0  0  0  0  0  0
    4.5597   -1.4815    0.0000 N   0  0  0  0  0  0  0  0  0  0  0  0
    3.8787   -2.8180    0.0000 C   0  0  0  0  0  0  0  0  0  0  0  0
    5.0922   -3.6997    0.0000 O   0  0  0  0  0  0  0  0  0  0  0  0
    2.8180   -3.8787    0.0000 C   0  0  0  0  0  0  0  0  0  0  0  0
    3.6997   -5.0922    0.0000 C   0  0  0  0  0  0  0  0  0  0  0  0
    3.0896   -6.4625    0.0000 C   0  0  0  0  0  0  0  0  0  0  0  0
    3.9713   -7.6761    0.0000 C   0  0  0  0  0  0  0  0  0  0  0  0
    3.3612   -9.0464    0.0000 C   0  0  0  0  0  0  0  0  0  0  0  0
    4.2429  -10.2599    0.0000 N   0  0  0  0  0  0  0  0  0  0  0  0
    1.4815   -4.5597    0.0000 N   0  0  0  0  0  0  0  0  0  0  0  0
   -0.0000   -4.7943    0.0000 C   0  0  0  0  0  0  0  0  0  0  0  0
   -0.0000   -6.2943    0.0000 O   0  0  0  0  0  0  0  0  0  0  0  0
   -1.4815   -4.5597    0.0000 C   0  0  0  0  0  0  0  0  0  0  0  0
   -1.9451   -5.9863    0.0000 C   0  0  0  0  0  0  0  0  0  0  0  0
   -3.4123   -6.2981    0.0000 C   0  0  0  0  0  0  0  0  0  0  0  0
   -4.5270   -5.2944    0.0000 C   0  0  0  0  0  0  0  0  0  0  0  0
   -5.8260   -6.0444    0.0000 N   0  0  0  0  0  0  0  0  0  0  0  0
   -5.5142   -7.5117    0.0000 C   0  0  0  0  0  0  0  0  0  0  0  0
   -6.3958   -8.7252    0.0000 C   0  0  0  0  0  0  0  0  0  0  0  0
   -5.7857  -10.0955    0.0000 C   0  0  0  0  0  0  0  0  0  0  0  0
   -4.2940  -10.2523    0.0000 C   0  0  0  0  0  0  0  0  0  0  0  0
   -3.4123   -9.0388    0.0000 C   0  0  0  0  0  0  0  0  0  0  0  0
   -4.0224   -7.6685    0.0000 C   0  0  0  0  0  0  0  0  0  0  0  0
   -2.8180   -3.8787    0.0000 N   0  0  0  0  0  0  0  0  0  0  0  0
   -3.8787   -2.8180    0.0000 C   0  0  0  0  0  0  0  0  0  0  0  0
   -5.0922   -3.6997    0.0000 O   0  0  0  0  0  0  0  0  0  0  0  0
   -4.5597   -1.4815    0.0000 C   0  0  0  0  0  0  0  0  0  0  0  0
   -5.9863   -1.9451    0.0000 C   0  0  0  0  0  0  0  0  0  0  0  0
   -7.1010   -0.9414    0.0000 C   0  0  0  0  0  0  0  0  0  0  0  0
   -6.7891    0.5259    0.0000 C   0  0  0  0  0  0  0  0  0  0  0  0
   -7.9038    1.5296    0.0000 C   0  0  0  0  0  0  0  0  0  0  0  0
   -9.3304    1.0660    0.0000 C   0  0  0  0  0  0  0  0  0  0  0  0
   -9.6423   -0.4012    0.0000 C   0  0  0  0  0  0  0  0  0  0  0  0
   -8.5276   -1.4049    0.0000 C   0  0  0  0  0  0  0  0  0  0  0  0
   -4.7943    0.0000    0.0000 N   0  0  0  0  0  0  0  0  0  0  0  0
   -4.5597    1.4815    0.0000 C   0  0  0  0  0  0  0  0  0  0  0  0
   -5.9863    1.9451    0.0000 O   0  0  0  0  0  0  0  0  0  0  0  0
   -3.8787    2.8180    0.0000 C   0  0  0  0  0  0  0  0  0  0  0  0
   -5.0922    3.6997    0.0000 N   0  0  0  0  0  0  0  0  0  0  0  0
   -4.9354    5.1915    0.0000 C   0  0  0  0  0  0  0  0  0  0  0  0
   -3.5651    5.8016    0.0000 O   0  0  0  0  0  0  0  0  0  0  0  0
   -6.1490    6.0732    0.0000 C   0  0  0  0  0  0  0  0  0  0  0  0
   -7.5193    5.4631    0.0000 N   0  0  0  0  0  0  0  0  0  0  0  0
   -5.9922    7.5650    0.0000 C   0  0  0  0  0  0  0  0  0  0  0  0
   -7.2057    8.4466    0.0000 C   0  0  0  0  0  0  0  0  0  0  0  0
   -7.0489    9.9384    0.0000 C   0  0  0  0  0  0  0  0  0  0  0  0
   -8.2624   10.8201    0.0000 C   0  0  0  0  0  0  0  0  0  0  0  0
   -9.6327   10.2100    0.0000 C   0  0  0  0  0  0  0  0  0  0  0  0
   -9.7895    8.7182    0.0000 C   0  0  0  0  0  0  0  0  0  0  0  0
   -8.5760    7.8365    0.0000 C   0  0  0  0  0  0  0  0  0  0  0  0
   -2.8180    3.8787    0.0000 C   0  0  0  0  0  0  0  0  0  0  0  0
   -1.4815    4.5597    0.0000 S   0  0  0  0  0  0  0  0  0  0  0  0
    0.0000    4.7943    0.0000 S   0  0  0  0  0  0  0  0  0  0  0  0
    1.4815    4.5597    0.0000 C   0  0  0  0  0  0  0  0  0  0  0  0
    2.8180    3.8787    0.0000 C   0  0  0  0  0  0  0  0  0  0  0  0
    3.6997    5.0922    0.0000 C   0  0  0  0  0  0  0  0  0  0  0  0
    3.0896    6.4625    0.0000 O   0  0  0  0  0  0  0  0  0  0  0  0
    5.1915    4.9354    0.0000 N   0  0  0  0  0  0  0  0  0  0  0  0
    6.0732    6.1490    0.0000 C   0  0  0  0  0  0  0  0  0  0  0  0
    7.5650    5.9922    0.0000 C   0  0  0  0  0  0  0  0  0  0  0  0
    8.4466    7.2057    0.0000 O   0  0  0  0  0  0  0  0  0  0  0  0
    5.4631    7.5193    0.0000 C   0  0  0  0  0  0  0  0  0  0  0  0
    6.3448    8.7328    0.0000 C   0  0  0  0  0  0  0  0  0  0  0  0
    3.9713    7.6761    0.0000 O   0  0  0  0  0  0  0  0  0  0  0  0
    3.8787    2.8180    0.0000 N   0  0  0  0  0  0  0  0  0  0  0  0
    4.5597    1.4815    0.0000 C   0  0  0  0  0  0  0  0  0  0  0  0
    5.9863    1.9451    0.0000 O   0  0  0  0  0  0  0  0  0  0  0  0
  1  2  1  0
  2  3  2  0
  2  4  1  0
  6  5  1  6
  6  7  1  0
  6  8  1  0
  8  9  1  6
  9 10  1  0
 10 11  2  0
 10 12  1  0
 12 13  1  6
 13 14  1  0
 14 15  1  0
 15 16  1  0
 16 17  1  0
 12 18  1  0
 18 19  1  0
 19 20  2  0
 19 21  1  0
 21 22  1  1
 22 23  1  0
 23 24  2  0
 24 25  1  0
 25 26  1  0
 26 27  2  0
 27 28  1  0
 28 29  2  0
 29 30  1  0
 30 31  2  0
 21 32  1  0
 32 33  1  0
 33 34  2  0
 33 35  1  0
 35 36  1  6
 36 37  1  0
 37 38  2  0
 38 39  1  0
 39 40  2  0
 40 41  1  0
 41 42  2  0
 35 43  1  0
 43 44  1  0
 44 45  2  0
 44 46  1  0
 46 47  1  1
 47 48  1  0
 48 49  2  0
 48 50  1  0
 50 51  1  6
 50 52  1  0
 52 53  1  0
 53 54  2  0
 54 55  1  0
 55 56  2  0
 56 57  1  0
 57 58  2  0
 46 59  1  0
 59 60  1  0
 60 61  1  0
 61 62  1  0
 62 63  1  0
 63 64  1  1
 64 65  2  0
 64 66  1  0
 66 67  1  0
 67 68  1  1
 68 69  1  0
 67 70  1  0
 70 71  1  6
 70 72  1  0
 63 73  1  0
 73 74  1  0
 74 75  2  0
 74  8  1  0
 31 23  1  0
 42 37  1  0
 58 53  1  0
 31 26  1  0
M  END
>  <assay_description>  (303) 
Inhibition of human BSEP overexpressed in Sf9 cell membrane vesicles assessed as uptake of [3H]-taurocholate in presence of ATP measured after 15 to 20 mins by membrane vesicle transport assay

>  <molecule_pref_name>  (303) 
OCTREOTIDE ACETATE

>  <canonical_smiles>  (303) 
CC(=O)O.C[C@@H](O)[C@@H]1NC(=O)[C@H](CCCCN)NC(=O)[C@@H](Cc2c[nH]c3ccccc23)NC(=O)[C@H](Cc2ccccc2)NC(=O)[C@@H](NC(=O)[C@H](N)Cc2ccccc2)CSSC[C@@H](C(=O)N[C@H](CO)[C@@H](C)O)NC1=O

>  <pchembl_value>  (303) 
5.03

>  <standard_type>  (303) 
IC50

>  <standard_relation>  (303) 
=

>  <standard_value>  (303) 
9340.0

>  <standard_units>  (303) 
nM

>  <target_pref_name>  (303) 
Bile salt export pump

>  <target_organism>  (303) 
Homo sapiens

$$$$
CHEMBL428647
     RDKit          2D

 62 68  0  0  0  0  0  0  0  0999 V2000
   -6.8980   -5.9648    0.0000 C   0  0  0  0  0  0  0  0  0  0  0  0
   -5.9848   -4.7747    0.0000 C   0  0  0  0  0  0  0  0  0  0  0  0
   -4.4977   -4.9705    0.0000 O   0  0  0  0  0  0  0  0  0  0  0  0
   -6.5588   -3.3889    0.0000 O   0  0  0  0  0  0  0  0  0  0  0  0
   -5.6457   -2.1989    0.0000 C   0  0  0  0  0  0  0  0  0  0  0  0
   -4.1968   -2.5871    0.0000 C   0  0  0  0  0  0  0  0  0  0  0  0
   -4.0010   -4.0743    0.0000 O   0  0  0  0  0  0  0  0  0  0  0  0
   -2.8978   -1.8371    0.0000 C   0  0  0  0  0  0  0  0  0  0  0  0
   -3.0936   -3.3243    0.0000 C   0  0  0  0  0  0  0  0  0  0  0  0
   -1.8371   -2.8978    0.0000 C   0  0  0  0  0  0  0  0  0  0  0  0
   -2.2253   -4.3467    0.0000 O   0  0  0  0  0  0  0  0  0  0  0  0
   -0.3882   -2.5095    0.0000 C   0  0  0  0  0  0  0  0  0  0  0  0
   -0.0000   -1.0607    0.0000 C   0  0  0  0  0  0  0  0  0  0  0  0
    1.0607    0.0000    0.0000 O   0  0  0  0  0  0  0  0  0  0  0  0
    0.0000    1.0607    0.0000 C   0  0  0  0  0  0  0  0  0  0  0  0
   -1.0607    0.0000    0.0000 C   0  0  0  0  0  0  0  0  0  0  0  0
   -1.8107    1.2990    0.0000 O   0  0  0  0  0  0  0  0  0  0  0  0
   -1.0607    2.5981    0.0000 C   0  0  0  0  0  0  0  0  0  0  0  0
   -1.8107    3.8971    0.0000 C   0  0  0  0  0  0  0  0  0  0  0  0
    0.4393    2.5981    0.0000 O   0  0  0  0  0  0  0  0  0  0  0  0
   -2.5095   -0.3882    0.0000 C   0  0  0  0  0  0  0  0  0  0  0  0
   -3.2595    0.9108    0.0000 C   0  0  0  0  0  0  0  0  0  0  0  0
   -2.3464    2.1008    0.0000 O   0  0  0  0  0  0  0  0  0  0  0  0
   -2.9204    3.4867    0.0000 C   0  0  0  0  0  0  0  0  0  0  0  0
   -4.4076    3.6824    0.0000 O   0  0  0  0  0  0  0  0  0  0  0  0
   -2.0073    4.6767    0.0000 C   0  0  0  0  0  0  0  0  0  0  0  0
   -0.5201    4.4809    0.0000 C   0  0  0  0  0  0  0  0  0  0  0  0
    0.3930    5.6709    0.0000 C   0  0  0  0  0  0  0  0  0  0  0  0
   -0.1810    7.0567    0.0000 C   0  0  0  0  0  0  0  0  0  0  0  0
   -1.6682    7.2525    0.0000 C   0  0  0  0  0  0  0  0  0  0  0  0
   -2.5813    6.0625    0.0000 C   0  0  0  0  0  0  0  0  0  0  0  0
   -4.7084    1.2990    0.0000 C   0  0  0  0  0  0  0  0  0  0  0  0
   -4.9042    2.7862    0.0000 O   0  0  0  0  0  0  0  0  0  0  0  0
   -6.0041    2.0745    0.0000 C   0  0  0  0  0  0  0  0  0  0  0  0
   -7.3899    1.5005    0.0000 C   0  0  0  0  0  0  0  0  0  0  0  0
   -8.5800    2.4136    0.0000 O   0  0  0  0  0  0  0  0  0  0  0  0
   -8.3842    3.9008    0.0000 C   0  0  0  0  0  0  0  0  0  0  0  0
   -6.9984    4.4748    0.0000 O   0  0  0  0  0  0  0  0  0  0  0  0
   -9.5742    4.8139    0.0000 C   0  0  0  0  0  0  0  0  0  0  0  0
  -10.9600    4.2399    0.0000 O   0  0  0  0  0  0  0  0  0  0  0  0
   -9.3784    6.3011    0.0000 C   0  0  0  0  0  0  0  0  0  0  0  0
   -7.9926    6.8751    0.0000 N   0  0  0  0  0  0  0  0  0  0  0  0
   -7.7968    8.3623    0.0000 C   0  0  0  0  0  0  0  0  0  0  0  0
   -8.9868    9.2754    0.0000 O   0  0  0  0  0  0  0  0  0  0  0  0
   -6.4110    8.9363    0.0000 C   0  0  0  0  0  0  0  0  0  0  0  0
   -5.2210    8.0232    0.0000 C   0  0  0  0  0  0  0  0  0  0  0  0
   -3.8351    8.5972    0.0000 C   0  0  0  0  0  0  0  0  0  0  0  0
   -3.6394   10.0843    0.0000 C   0  0  0  0  0  0  0  0  0  0  0  0
   -4.8294   10.9975    0.0000 C   0  0  0  0  0  0  0  0  0  0  0  0
   -6.2152   10.4235    0.0000 C   0  0  0  0  0  0  0  0  0  0  0  0
  -10.5685    7.2142    0.0000 C   0  0  0  0  0  0  0  0  0  0  0  0
  -10.3727    8.7014    0.0000 C   0  0  0  0  0  0  0  0  0  0  0  0
  -11.5627    9.6145    0.0000 C   0  0  0  0  0  0  0  0  0  0  0  0
  -12.9485    9.0405    0.0000 C   0  0  0  0  0  0  0  0  0  0  0  0
  -13.1443    7.5533    0.0000 C   0  0  0  0  0  0  0  0  0  0  0  0
  -11.9543    6.6402    0.0000 C   0  0  0  0  0  0  0  0  0  0  0  0
   -7.5857    0.0133    0.0000 C   0  0  0  0  0  0  0  0  0  0  0  0
   -8.9716   -0.5607    0.0000 C   0  0  0  0  0  0  0  0  0  0  0  0
   -6.3957   -0.8999    0.0000 C   0  0  0  0  0  0  0  0  0  0  0  0
   -6.0075    0.5490    0.0000 C   0  0  0  0  0  0  0  0  0  0  0  0
   -6.7348    1.8609    0.0000 C   0  0  0  0  0  0  0  0  0  0  0  0
   -7.0685    0.8136    0.0000 C   0  0  0  0  0  0  0  0  0  0  0  0
  1  2  1  0
  2  3  2  0
  2  4  1  0
  5  4  1  6
  5  6  1  0
  6  7  2  0
  6  8  1  0
  8  9  1  6
  8 10  1  0
 10 11  1  6
 10 12  1  0
 13 12  1  6
 13 14  1  0
 14 15  1  0
 15 16  1  0
 16 17  1  1
 17 18  1  0
 18 19  1  0
 18 20  2  0
 16 21  1  0
 21 22  1  6
 22 23  1  1
 23 24  1  0
 24 25  2  0
 24 26  1  0
 26 27  2  0
 27 28  1  0
 28 29  2  0
 29 30  1  0
 30 31  2  0
 22 32  1  0
 32 33  1  6
 32 34  1  0
 34 35  1  0
 35 36  1  1
 36 37  1  0
 37 38  2  0
 37 39  1  0
 39 40  1  6
 39 41  1  0
 41 42  1  6
 42 43  1  0
 43 44  2  0
 43 45  1  0
 45 46  2  0
 46 47  1  0
 47 48  2  0
 48 49  1  0
 49 50  2  0
 41 51  1  0
 51 52  2  0
 52 53  1  0
 53 54  2  0
 54 55  1  0
 55 56  2  0
 35 57  1  0
 57 58  1  0
 57 59  2  0
 59 60  1  0
 60 61  1  0
 60 62  1  0
 59  5  1  0
 21  8  1  0
 31 26  1  0
 60 32  1  0
 16 13  1  0
 50 45  1  0
 56 51  1  0
M  END
>  <assay_description>  (304) 
Inhibition of human BSEP overexpressed in Sf9 cell membrane vesicles assessed as uptake of [3H]-taurocholate in presence of ATP measured after 15 to 20 mins by membrane vesicle transport assay

>  <molecule_pref_name>  (304) 
PACLITAXEL

>  <canonical_smiles>  (304) 
CC(=O)O[C@H]1C(=O)[C@]2(C)[C@@H](O)C[C@H]3OC[C@@]3(OC(C)=O)[C@H]2[C@H](OC(=O)c2ccccc2)[C@]2(O)C[C@H](OC(=O)[C@H](O)[C@@H](NC(=O)c3ccccc3)c3ccccc3)C(C)=C1C2(C)C

>  <pchembl_value>  (304) 
4.61

>  <standard_type>  (304) 
IC50

>  <standard_relation>  (304) 
=

>  <standard_value>  (304) 
24400.0

>  <standard_units>  (304) 
nM

>  <target_pref_name>  (304) 
Bile salt export pump

>  <target_organism>  (304) 
Homo sapiens

$$$$
CHEMBL1324
     RDKit          2D

 20 21  0  0  0  0  0  0  0  0999 V2000
    3.0000    0.0000    0.0000 C   0  0  0  0  0  0  0  0  0  0  0  0
    1.5000    0.0000    0.0000 C   0  0  0  0  0  0  0  0  0  0  0  0
    0.7500   -1.2990    0.0000 C   0  0  0  0  0  0  0  0  0  0  0  0
   -0.7500   -1.2990    0.0000 C   0  0  0  0  0  0  0  0  0  0  0  0
   -1.5000    0.0000    0.0000 C   0  0  0  0  0  0  0  0  0  0  0  0
   -3.0000    0.0000    0.0000 C   0  0  0  0  0  0  0  0  0  0  0  0
   -3.7500   -1.2990    0.0000 O   0  0  0  0  0  0  0  0  0  0  0  0
   -3.7500    1.2990    0.0000 C   0  0  0  0  0  0  0  0  0  0  0  0
   -3.0000    2.5981    0.0000 C   0  0  0  0  0  0  0  0  0  0  0  0
   -3.7500    3.8971    0.0000 C   0  0  0  0  0  0  0  0  0  0  0  0
   -3.0000    5.1962    0.0000 O   0  0  0  0  0  0  0  0  0  0  0  0
   -5.2500    3.8971    0.0000 C   0  0  0  0  0  0  0  0  0  0  0  0
   -6.0000    5.1962    0.0000 O   0  0  0  0  0  0  0  0  0  0  0  0
   -6.0000    2.5981    0.0000 C   0  0  0  0  0  0  0  0  0  0  0  0
   -7.5000    2.5981    0.0000 N   0  0  0  0  0  4  0  0  0  0  0  0
   -8.2500    3.8971    0.0000 O   0  0  0  0  0  0  0  0  0  0  0  0
   -8.2500    1.2990    0.0000 O   0  0  0  0  0  1  0  0  0  0  0  0
   -5.2500    1.2990    0.0000 C   0  0  0  0  0  0  0  0  0  0  0  0
   -0.7500    1.2990    0.0000 C   0  0  0  0  0  0  0  0  0  0  0  0
    0.7500    1.2990    0.0000 C   0  0  0  0  0  0  0  0  0  0  0  0
  1  2  1  0
  2  3  2  0
  3  4  1  0
  4  5  2  0
  5  6  1  0
  6  7  2  0
  6  8  1  0
  8  9  2  0
  9 10  1  0
 10 11  1  0
 10 12  2  0
 12 13  1  0
 12 14  1  0
 14 15  1  0
 15 16  2  0
 15 17  1  0
 14 18  2  0
  5 19  1  0
 19 20  2  0
 20  2  1  0
 18  8  1  0
M  CHG  2  15   1  17  -1
M  END
>  <assay_description>  (305) 
Inhibition of human BSEP overexpressed in Sf9 cell membrane vesicles assessed as uptake of [3H]-taurocholate in presence of ATP measured after 15 to 20 mins by membrane vesicle transport assay

>  <molecule_pref_name>  (305) 
TOLCAPONE

>  <canonical_smiles>  (305) 
Cc1ccc(C(=O)c2cc(O)c(O)c([N+](=O)[O-])c2)cc1

>  <pchembl_value>  (305) 
4.44

>  <standard_type>  (305) 
IC50

>  <standard_relation>  (305) 
=

>  <standard_value>  (305) 
36600.0

>  <standard_units>  (305) 
nM

>  <target_pref_name>  (305) 
Bile salt export pump

>  <target_organism>  (305) 
Homo sapiens

$$$$
CHEMBL672
     RDKit          2D

 25 26  0  0  0  0  0  0  0  0999 V2000
    3.7500   -6.4952    0.0000 C   0  0  0  0  0  0  0  0  0  0  0  0
    4.5000   -5.1962    0.0000 C   0  0  0  0  0  0  0  0  0  0  0  0
    6.0000   -5.1962    0.0000 C   0  0  0  0  0  0  0  0  0  0  0  0
    3.7500   -3.8971    0.0000 O   0  0  0  0  0  0  0  0  0  0  0  0
    4.5000   -2.5981    0.0000 C   0  0  0  0  0  0  0  0  0  0  0  0
    6.0000   -2.5981    0.0000 O   0  0  0  0  0  0  0  0  0  0  0  0
    3.7500   -1.2990    0.0000 C   0  0  0  0  0  0  0  0  0  0  0  0
    5.0490   -0.5490    0.0000 C   0  0  0  0  0  0  0  0  0  0  0  0
    2.4510   -2.0490    0.0000 C   0  0  0  0  0  0  0  0  0  0  0  0
    3.0000    0.0000    0.0000 O   0  0  0  0  0  0  0  0  0  0  0  0
    1.5000    0.0000    0.0000 C   0  0  0  0  0  0  0  0  0  0  0  0
    0.7500   -1.2990    0.0000 C   0  0  0  0  0  0  0  0  0  0  0  0
   -0.7500   -1.2990    0.0000 C   0  0  0  0  0  0  0  0  0  0  0  0
   -1.5000    0.0000    0.0000 C   0  0  0  0  0  0  0  0  0  0  0  0
   -3.0000    0.0000    0.0000 C   0  0  0  0  0  0  0  0  0  0  0  0
   -3.7500   -1.2990    0.0000 O   0  0  0  0  0  0  0  0  0  0  0  0
   -3.7500    1.2990    0.0000 C   0  0  0  0  0  0  0  0  0  0  0  0
   -3.0000    2.5981    0.0000 C   0  0  0  0  0  0  0  0  0  0  0  0
   -3.7500    3.8971    0.0000 C   0  0  0  0  0  0  0  0  0  0  0  0
   -5.2500    3.8971    0.0000 C   0  0  0  0  0  0  0  0  0  0  0  0
   -6.0000    5.1962    0.0000 Cl  0  0  0  0  0  0  0  0  0  0  0  0
   -6.0000    2.5981    0.0000 C   0  0  0  0  0  0  0  0  0  0  0  0
   -5.2500    1.2990    0.0000 C   0  0  0  0  0  0  0  0  0  0  0  0
   -0.7500    1.2990    0.0000 C   0  0  0  0  0  0  0  0  0  0  0  0
    0.7500    1.2990    0.0000 C   0  0  0  0  0  0  0  0  0  0  0  0
  1  2  1  0
  2  3  1  0
  2  4  1  0
  4  5  1  0
  5  6  2  0
  5  7  1  0
  7  8  1  0
  7  9  1  0
  7 10  1  0
 10 11  1  0
 11 12  2  0
 12 13  1  0
 13 14  2  0
 14 15  1  0
 15 16  2  0
 15 17  1  0
 17 18  2  0
 18 19  1  0
 19 20  2  0
 20 21  1  0
 20 22  1  0
 22 23  2  0
 14 24  1  0
 24 25  2  0
 25 11  1  0
 23 17  1  0
M  END
>  <assay_description>  (306) 
Inhibition of human BSEP overexpressed in Sf9 cell membrane vesicles assessed as uptake of [3H]-taurocholate in presence of ATP measured after 15 to 20 mins by membrane vesicle transport assay

>  <molecule_pref_name>  (306) 
FENOFIBRATE

>  <canonical_smiles>  (306) 
CC(C)OC(=O)C(C)(C)Oc1ccc(C(=O)c2ccc(Cl)cc2)cc1

>  <pchembl_value>  (306) 
4.82

>  <standard_type>  (306) 
IC50

>  <standard_relation>  (306) 
=

>  <standard_value>  (306) 
15300.0

>  <standard_units>  (306) 
nM

>  <target_pref_name>  (306) 
Bile salt export pump

>  <target_organism>  (306) 
Homo sapiens

$$$$
CHEMBL550348
     RDKit          2D

 28 31  0  0  0  0  0  0  0  0999 V2000
    3.7500    1.2990    0.0000 O   0  0  0  0  0  0  0  0  0  0  0  0
    3.0000    0.0000    0.0000 C   0  0  0  0  0  0  0  0  0  0  0  0
    3.7500   -1.2990    0.0000 O   0  0  0  0  0  0  0  0  0  0  0  0
    1.5000    0.0000    0.0000 C   0  0  0  0  0  0  0  0  0  0  0  0
    0.7500   -1.2990    0.0000 C   0  0  0  0  0  0  0  0  0  0  0  0
   -0.7500   -1.2990    0.0000 C   0  0  0  0  0  0  0  0  0  0  0  0
   -1.5000    0.0000    0.0000 C   0  0  0  0  0  0  0  0  0  0  0  0
   -3.0000    0.0000    0.0000 N   0  0  0  0  0  0  0  0  0  0  0  0
   -3.8817   -1.2135    0.0000 N   0  0  0  0  0  0  0  0  0  0  0  0
   -5.3083   -0.7500    0.0000 C   0  0  0  0  0  0  0  0  0  0  0  0
   -6.5218   -1.6317    0.0000 C   0  0  0  0  0  0  0  0  0  0  0  0
   -7.8921   -1.0216    0.0000 C   0  0  0  0  0  0  0  0  0  0  0  0
   -9.1056   -1.9033    0.0000 C   0  0  0  0  0  0  0  0  0  0  0  0
   -8.9488   -3.3950    0.0000 C   0  0  0  0  0  0  0  0  0  0  0  0
   -7.5785   -4.0051    0.0000 C   0  0  0  0  0  0  0  0  0  0  0  0
   -6.3650   -3.1235    0.0000 C   0  0  0  0  0  0  0  0  0  0  0  0
   -4.9947   -3.7336    0.0000 O   0  0  0  0  0  0  0  0  0  0  0  0
   -5.3083    0.7500    0.0000 N   0  0  0  0  0  0  0  0  0  0  0  0
   -3.8817    1.2135    0.0000 C   0  0  0  0  0  0  0  0  0  0  0  0
   -3.4182    2.6401    0.0000 C   0  0  0  0  0  0  0  0  0  0  0  0
   -1.9509    2.9520    0.0000 C   0  0  0  0  0  0  0  0  0  0  0  0
   -1.4874    4.3786    0.0000 C   0  0  0  0  0  0  0  0  0  0  0  0
   -2.4911    5.4933    0.0000 C   0  0  0  0  0  0  0  0  0  0  0  0
   -3.9583    5.1814    0.0000 C   0  0  0  0  0  0  0  0  0  0  0  0
   -4.4218    3.7548    0.0000 C   0  0  0  0  0  0  0  0  0  0  0  0
   -5.8891    3.4430    0.0000 O   0  0  0  0  0  0  0  0  0  0  0  0
   -0.7500    1.2990    0.0000 C   0  0  0  0  0  0  0  0  0  0  0  0
    0.7500    1.2990    0.0000 C   0  0  0  0  0  0  0  0  0  0  0  0
  1  2  2  0
  2  3  1  0
  2  4  1  0
  4  5  2  0
  5  6  1  0
  6  7  2  0
  7  8  1  0
  8  9  1  0
  9 10  2  0
 10 11  1  0
 11 12  2  0
 12 13  1  0
 13 14  2  0
 14 15  1  0
 15 16  2  0
 16 17  1  0
 10 18  1  0
 18 19  2  0
 19 20  1  0
 20 21  2  0
 21 22  1  0
 22 23  2  0
 23 24  1  0
 24 25  2  0
 25 26  1  0
  7 27  1  0
 27 28  2  0
 28  4  1  0
 19  8  1  0
 25 20  1  0
 16 11  1  0
M  END
>  <assay_description>  (307) 
Inhibition of human BSEP overexpressed in Sf9 cell membrane vesicles assessed as uptake of [3H]-taurocholate in presence of ATP measured after 15 to 20 mins by membrane vesicle transport assay

>  <molecule_pref_name>  (307) 
DEFERASIROX

>  <canonical_smiles>  (307) 
O=C(O)c1ccc(-n2nc(-c3ccccc3O)nc2-c2ccccc2O)cc1

>  <pchembl_value>  (307) 
4.23

>  <standard_type>  (307) 
IC50

>  <standard_relation>  (307) 
=

>  <standard_value>  (307) 
58400.0

>  <standard_units>  (307) 
nM

>  <target_pref_name>  (307) 
Bile salt export pump

>  <target_organism>  (307) 
Homo sapiens

$$$$
CHEMBL1276308
     RDKit          2D

 32 36  0  0  0  0  0  0  0  0999 V2000
   -5.7135  -10.5199    0.0000 C   0  0  0  0  0  0  0  0  0  0  0  0
   -4.9635   -9.2208    0.0000 C   0  0  0  0  0  0  0  0  0  0  0  0
   -4.2135   -7.9218    0.0000 C   0  0  0  0  0  0  0  0  0  0  0  0
   -3.4635   -6.6227    0.0000 C   0  0  0  0  0  0  0  0  0  0  0  0
   -4.8980   -6.1842    0.0000 O   0  0  0  0  0  0  0  0  0  0  0  0
   -2.2500   -7.5044    0.0000 C   0  0  0  0  0  0  0  0  0  0  0  0
   -1.0365   -6.6227    0.0000 C   0  0  0  0  0  0  0  0  0  0  0  0
   -1.5000   -5.1962    0.0000 C   0  0  0  0  0  0  0  0  0  0  0  0
   -0.7500   -3.8971    0.0000 C   0  0  0  0  0  0  0  0  0  0  0  0
    0.7500   -3.8971    0.0000 C   0  0  0  0  0  0  0  0  0  0  0  0
    1.5000   -2.5981    0.0000 C   0  0  0  0  0  0  0  0  0  0  0  0
    0.7500   -1.2990    0.0000 C   0  0  0  0  0  0  0  0  0  0  0  0
    1.5000    0.0000    0.0000 C   0  0  0  0  0  0  0  0  0  0  0  0
    0.7500    1.2990    0.0000 C   0  0  0  0  0  0  0  0  0  0  0  0
    1.5000    2.5981    0.0000 O   0  0  0  0  0  0  0  0  0  0  0  0
   -0.7500    1.2990    0.0000 C   0  0  0  0  0  0  0  0  0  0  0  0
   -1.5000    0.0000    0.0000 C   0  0  0  0  0  0  0  0  0  0  0  0
   -0.7500   -1.2990    0.0000 C   0  0  0  0  0  0  0  0  0  0  0  0
   -1.5000   -2.5981    0.0000 C   0  0  0  0  0  0  0  0  0  0  0  0
   -3.0000   -2.5981    0.0000 C   0  0  0  0  0  0  0  0  0  0  0  0
   -3.7500   -1.2990    0.0000 C   0  0  0  0  0  0  0  0  0  0  0  0
   -3.0000    0.0000    0.0000 C   0  0  0  0  0  0  0  0  0  0  0  0
   -3.7500    1.2990    0.0000 C   0  0  0  0  0  0  0  0  0  0  0  0
   -5.2500    1.2990    0.0000 C   0  0  0  0  0  0  0  0  0  0  0  0
   -6.0000    2.5981    0.0000 N   0  0  0  0  0  0  0  0  0  0  0  0
   -5.2500    3.8971    0.0000 C   0  0  0  0  0  0  0  0  0  0  0  0
   -7.5000    2.5981    0.0000 C   0  0  0  0  0  0  0  0  0  0  0  0
   -6.0000    0.0000    0.0000 C   0  0  0  0  0  0  0  0  0  0  0  0
   -5.2500   -1.2990    0.0000 C   0  0  0  0  0  0  0  0  0  0  0  0
   -3.7500   -3.8971    0.0000 C   0  0  0  0  0  0  0  0  0  0  0  0
   -3.0000   -5.1962    0.0000 C   0  0  0  0  0  0  0  0  0  0  0  0
   -4.4998   -5.1699    0.0000 C   0  0  0  0  0  0  0  0  0  0  0  0
  1  2  1  0
  2  3  3  0
  3  4  1  0
  4  5  1  6
  4  6  1  0
  6  7  1  0
  8  7  1  6
  8  9  1  0
  9 10  1  1
 10 11  1  0
 11 12  1  0
 12 13  2  0
 13 14  1  0
 14 15  2  0
 14 16  1  0
 16 17  1  0
 17 18  1  0
 18 19  2  0
 19 20  1  0
 20 21  1  6
 21 22  2  0
 22 23  1  0
 23 24  2  0
 24 25  1  0
 25 26  1  0
 25 27  1  0
 24 28  1  0
 28 29  2  0
 20 30  1  0
 30 31  1  0
 31 32  1  6
 31  4  1  0
 31  8  1  0
 19  9  1  0
 29 21  1  0
 18 12  1  0
M  END
>  <assay_description>  (308) 
Inhibition of human BSEP overexpressed in Sf9 cell membrane vesicles assessed as uptake of [3H]-taurocholate in presence of ATP measured after 15 to 20 mins by membrane vesicle transport assay

>  <molecule_pref_name>  (308) 
MIFEPRISTONE

>  <canonical_smiles>  (308) 
CC#C[C@]1(O)CC[C@H]2[C@@H]3CCC4=CC(=O)CCC4=C3[C@@H](c3ccc(N(C)C)cc3)C[C@@]21C

>  <pchembl_value>  (308) 
5.70

>  <standard_type>  (308) 
IC50

>  <standard_relation>  (308) 
=

>  <standard_value>  (308) 
2020.0

>  <standard_units>  (308) 
nM

>  <target_pref_name>  (308) 
Bile salt export pump

>  <target_organism>  (308) 
Homo sapiens

$$$$
CHEMBL15177
     RDKit          2D

 34 36  0  0  0  0  0  0  0  0999 V2000
   14.2500   -9.0933    0.0000 C   0  0  0  0  0  0  0  0  0  0  0  0
   12.7500   -9.0933    0.0000 N   0  0  0  0  0  0  0  0  0  0  0  0
   12.0000  -10.3923    0.0000 C   0  0  0  0  0  0  0  0  0  0  0  0
   12.0000   -7.7942    0.0000 C   0  0  0  0  0  0  0  0  0  0  0  0
   12.7500   -6.4952    0.0000 O   0  0  0  0  0  0  0  0  0  0  0  0
   10.5000   -7.7942    0.0000 C   0  0  0  0  0  0  0  0  0  0  0  0
    9.7500   -6.4952    0.0000 C   0  0  0  0  0  0  0  0  0  0  0  0
    8.2500   -6.4952    0.0000 S   0  0  0  0  0  0  0  0  0  0  0  0
    7.5000   -5.1962    0.0000 C   0  0  0  0  0  0  0  0  0  0  0  0
    8.2500   -3.8971    0.0000 S   0  0  0  0  0  0  0  0  0  0  0  0
    9.7500   -3.8971    0.0000 C   0  0  0  0  0  0  0  0  0  0  0  0
   10.5000   -2.5981    0.0000 C   0  0  0  0  0  0  0  0  0  0  0  0
   12.0000   -2.5981    0.0000 C   0  0  0  0  0  0  0  0  0  0  0  0
   12.7500   -3.8971    0.0000 O   0  0  0  0  0  0  0  0  0  0  0  0
   12.7500   -1.2990    0.0000 O   0  0  0  0  0  0  0  0  0  0  0  0
    6.0000   -5.1962    0.0000 C   0  0  0  0  0  0  0  0  0  0  0  0
    5.2500   -6.4952    0.0000 C   0  0  0  0  0  0  0  0  0  0  0  0
    3.7500   -6.4952    0.0000 C   0  0  0  0  0  0  0  0  0  0  0  0
    3.0000   -5.1962    0.0000 C   0  0  0  0  0  0  0  0  0  0  0  0
    3.7500   -3.8971    0.0000 C   0  0  0  0  0  0  0  0  0  0  0  0
    3.0000   -2.5981    0.0000 C   0  0  0  0  0  0  0  0  0  0  0  0
    1.5000   -2.5981    0.0000 C   0  0  0  0  0  0  0  0  0  0  0  0
    0.7500   -1.2990    0.0000 C   0  0  0  0  0  0  0  0  0  0  0  0
    1.5000    0.0000    0.0000 C   0  0  0  0  0  0  0  0  0  0  0  0
    0.7500    1.2990    0.0000 C   0  0  0  0  0  0  0  0  0  0  0  0
   -0.7500    1.2990    0.0000 C   0  0  0  0  0  0  0  0  0  0  0  0
   -1.5000    2.5981    0.0000 C   0  0  0  0  0  0  0  0  0  0  0  0
   -3.0000    2.5981    0.0000 C   0  0  0  0  0  0  0  0  0  0  0  0
   -3.7500    1.2990    0.0000 C   0  0  0  0  0  0  0  0  0  0  0  0
   -5.2500    1.2990    0.0000 Cl  0  0  0  0  0  0  0  0  0  0  0  0
   -3.0000    0.0000    0.0000 C   0  0  0  0  0  0  0  0  0  0  0  0
   -1.5000    0.0000    0.0000 C   0  0  0  0  0  0  0  0  0  0  0  0
   -0.7500   -1.2990    0.0000 N   0  0  0  0  0  0  0  0  0  0  0  0
    5.2500   -3.8971    0.0000 C   0  0  0  0  0  0  0  0  0  0  0  0
  1  2  1  0
  2  3  1  0
  2  4  1  0
  4  5  2  0
  4  6  1  0
  6  7  1  0
  7  8  1  0
  8  9  1  0
  9 10  1  0
 10 11  1  0
 11 12  1  0
 12 13  1  0
 13 14  2  0
 13 15  1  0
  9 16  1  0
 16 17  2  0
 17 18  1  0
 18 19  2  0
 19 20  1  0
 20 21  1  0
 21 22  2  0
 22 23  1  0
 23 24  2  0
 24 25  1  0
 25 26  2  0
 26 27  1  0
 27 28  2  0
 28 29  1  0
 29 30  1  0
 29 31  2  0
 31 32  1  0
 32 33  2  0
 20 34  2  0
 34 16  1  0
 33 23  1  0
 32 26  1  0
M  END
>  <assay_description>  (309) 
Inhibition of human BSEP overexpressed in Sf9 cell membrane vesicles assessed as uptake of [3H]-taurocholate in presence of ATP measured after 15 to 20 mins by membrane vesicle transport assay

>  <molecule_pref_name>  (309) 
MK-571

>  <canonical_smiles>  (309) 
CN(C)C(=O)CCSC(SCCC(=O)O)c1cccc(/C=C/c2ccc3ccc(Cl)cc3n2)c1

>  <pchembl_value>  (309) 
5.45

>  <standard_type>  (309) 
IC50

>  <standard_relation>  (309) 
=

>  <standard_value>  (309) 
3530.0

>  <standard_units>  (309) 
nM

>  <target_pref_name>  (309) 
Bile salt export pump

>  <target_organism>  (309) 
Homo sapiens

$$$$
CHEMBL477772
     RDKit          2D

 31 34  0  0  0  0  0  0  0  0999 V2000
    3.0000  -10.3923    0.0000 C   0  0  0  0  0  0  0  0  0  0  0  0
    3.7500   -9.0933    0.0000 C   0  0  0  0  0  0  0  0  0  0  0  0
    3.0000   -7.7942    0.0000 C   0  0  0  0  0  0  0  0  0  0  0  0
    3.7500   -6.4952    0.0000 C   0  0  0  0  0  0  0  0  0  0  0  0
    5.2500   -6.4952    0.0000 C   0  0  0  0  0  0  0  0  0  0  0  0
    6.0000   -5.1962    0.0000 N   0  0  0  0  0  0  0  0  0  0  0  0
    5.2500   -3.8971    0.0000 C   0  0  0  0  0  0  0  0  0  0  0  0
    6.0000   -2.5981    0.0000 N   0  0  0  0  0  0  0  0  0  0  0  0
    5.2500   -1.2990    0.0000 C   0  0  0  0  0  0  0  0  0  0  0  0
    3.7500   -1.2990    0.0000 C   0  0  0  0  0  0  0  0  0  0  0  0
    3.0000   -2.5981    0.0000 C   0  0  0  0  0  0  0  0  0  0  0  0
    1.5000   -2.5981    0.0000 N   0  0  0  0  0  0  0  0  0  0  0  0
    0.7500   -3.8971    0.0000 C   0  0  0  0  0  0  0  0  0  0  0  0
    0.7500   -1.2990    0.0000 C   0  0  0  0  0  0  0  0  0  0  0  0
    1.5000    0.0000    0.0000 C   0  0  0  0  0  0  0  0  0  0  0  0
    0.7500    1.2990    0.0000 C   0  0  0  0  0  0  0  0  0  0  0  0
   -0.7500    1.2990    0.0000 C   0  0  0  0  0  0  0  0  0  0  0  0
   -1.7537    2.4138    0.0000 C   0  0  0  0  0  0  0  0  0  0  0  0
   -1.4418    3.8810    0.0000 C   0  0  0  0  0  0  0  0  0  0  0  0
   -3.1240    1.8037    0.0000 N   0  0  0  0  0  0  0  0  0  0  0  0
   -4.4231    2.5537    0.0000 C   0  0  0  0  0  0  0  0  0  0  0  0
   -2.9672    0.3119    0.0000 N   0  0  0  0  0  0  0  0  0  0  0  0
   -1.5000    0.0000    0.0000 C   0  0  0  0  0  0  0  0  0  0  0  0
   -0.7500   -1.2990    0.0000 C   0  0  0  0  0  0  0  0  0  0  0  0
    3.7500   -3.8971    0.0000 N   0  0  0  0  0  0  0  0  0  0  0  0
    6.0000   -7.7942    0.0000 C   0  0  0  0  0  0  0  0  0  0  0  0
    5.2500   -9.0933    0.0000 C   0  0  0  0  0  0  0  0  0  0  0  0
    6.0000  -10.3923    0.0000 S   0  0  0  0  0  0  0  0  0  0  0  0
    6.7500  -11.6913    0.0000 N   0  0  0  0  0  0  0  0  0  0  0  0
    7.2990   -9.6423    0.0000 O   0  0  0  0  0  0  0  0  0  0  0  0
    4.7010  -11.1423    0.0000 O   0  0  0  0  0  0  0  0  0  0  0  0
  1  2  1  0
  2  3  2  0
  3  4  1  0
  4  5  2  0
  5  6  1  0
  6  7  1  0
  7  8  2  0
  8  9  1  0
  9 10  2  0
 10 11  1  0
 11 12  1  0
 12 13  1  0
 12 14  1  0
 14 15  1  0
 15 16  2  0
 16 17  1  0
 17 18  2  0
 18 19  1  0
 18 20  1  0
 20 21  1  0
 20 22  1  0
 22 23  2  0
 23 24  1  0
 11 25  2  0
  5 26  1  0
 26 27  2  0
 27 28  1  0
 28 29  1  0
 28 30  2  0
 28 31  2  0
 27  2  1  0
 25  7  1  0
 24 14  2  0
 23 17  1  0
M  END
>  <assay_description>  (310) 
Inhibition of human BSEP overexpressed in Sf9 cell membrane vesicles assessed as uptake of [3H]-taurocholate in presence of ATP measured after 15 to 20 mins by membrane vesicle transport assay

>  <molecule_pref_name>  (310) 
PAZOPANIB

>  <canonical_smiles>  (310) 
Cc1ccc(Nc2nccc(N(C)c3ccc4c(C)n(C)nc4c3)n2)cc1S(N)(=O)=O

>  <pchembl_value>  (310) 
4.99

>  <standard_type>  (310) 
IC50

>  <standard_relation>  (310) 
=

>  <standard_value>  (310) 
10300.0

>  <standard_units>  (310) 
nM

>  <target_pref_name>  (310) 
Bile salt export pump

>  <target_organism>  (310) 
Homo sapiens

$$$$
CHEMBL163
     RDKit          2D

 50 53  0  0  0  0  0  0  0  0999 V2000
   -9.3308    3.7259    0.0000 C   0  0  0  0  0  0  0  0  0  0  0  0
   -9.1740    2.2341    0.0000 C   0  0  0  0  0  0  0  0  0  0  0  0
  -10.3875    1.3524    0.0000 C   0  0  0  0  0  0  0  0  0  0  0  0
   -7.8037    1.6240    0.0000 C   0  0  0  0  0  0  0  0  0  0  0  0
   -7.4918    0.1568    0.0000 N   0  0  0  0  0  0  0  0  0  0  0  0
   -6.0000    0.0000    0.0000 C   0  0  0  0  0  0  0  0  0  0  0  0
   -5.2500   -1.2990    0.0000 C   0  0  0  0  0  0  0  0  0  0  0  0
   -6.0000   -2.5981    0.0000 N   0  0  0  0  0  0  0  0  0  0  0  0
   -7.5000   -2.5981    0.0000 C   0  0  0  0  0  0  0  0  0  0  0  0
   -5.2500   -3.8971    0.0000 C   0  0  0  0  0  0  0  0  0  0  0  0
   -6.0000   -5.1962    0.0000 O   0  0  0  0  0  0  0  0  0  0  0  0
   -3.7500   -3.8971    0.0000 N   0  0  0  0  0  0  0  0  0  0  0  0
   -3.0000   -5.1962    0.0000 C   0  0  0  0  0  0  0  0  0  0  0  0
   -1.5000   -5.1962    0.0000 C   0  0  0  0  0  0  0  0  0  0  0  0
   -0.7500   -6.4952    0.0000 O   0  0  0  0  0  0  0  0  0  0  0  0
   -0.7500   -3.8971    0.0000 N   0  0  0  0  0  0  0  0  0  0  0  0
    0.7500   -3.8971    0.0000 C   0  0  0  0  0  0  0  0  0  0  0  0
    1.5000   -2.5981    0.0000 C   0  0  0  0  0  0  0  0  0  0  0  0
    0.7500   -1.2990    0.0000 C   0  0  0  0  0  0  0  0  0  0  0  0
    1.5000    0.0000    0.0000 C   0  0  0  0  0  0  0  0  0  0  0  0
    0.7500    1.2990    0.0000 C   0  0  0  0  0  0  0  0  0  0  0  0
   -0.7500    1.2990    0.0000 C   0  0  0  0  0  0  0  0  0  0  0  0
   -1.5000    0.0000    0.0000 C   0  0  0  0  0  0  0  0  0  0  0  0
   -0.7500   -1.2990    0.0000 C   0  0  0  0  0  0  0  0  0  0  0  0
    1.5000   -5.1962    0.0000 C   0  0  0  0  0  0  0  0  0  0  0  0
    3.0000   -5.1962    0.0000 C   0  0  0  0  0  0  0  0  0  0  0  0
    3.7500   -3.8971    0.0000 O   0  0  0  0  0  0  0  0  0  0  0  0
    3.7500   -6.4952    0.0000 C   0  0  0  0  0  0  0  0  0  0  0  0
    5.2500   -6.4952    0.0000 C   0  0  0  0  0  0  0  0  0  0  0  0
    6.0000   -7.7942    0.0000 C   0  0  0  0  0  0  0  0  0  0  0  0
    7.5000   -7.7942    0.0000 C   0  0  0  0  0  0  0  0  0  0  0  0
    8.2500   -9.0933    0.0000 C   0  0  0  0  0  0  0  0  0  0  0  0
    7.5000  -10.3923    0.0000 C   0  0  0  0  0  0  0  0  0  0  0  0
    6.0000  -10.3923    0.0000 C   0  0  0  0  0  0  0  0  0  0  0  0
    5.2500   -9.0933    0.0000 C   0  0  0  0  0  0  0  0  0  0  0  0
    3.0000   -7.7942    0.0000 N   0  0  0  0  0  0  0  0  0  0  0  0
    1.5000   -7.7942    0.0000 C   0  0  0  0  0  0  0  0  0  0  0  0
    0.7500   -6.4952    0.0000 O   0  0  0  0  0  0  0  0  0  0  0  0
    0.7500   -9.0933    0.0000 O   0  0  0  0  0  0  0  0  0  0  0  0
   -0.7500   -9.0933    0.0000 C   0  0  0  0  0  0  0  0  0  0  0  0
   -1.5000  -10.3923    0.0000 C   0  0  0  0  0  0  0  0  0  0  0  0
   -0.8899  -11.7626    0.0000 C   0  0  0  0  0  0  0  0  0  0  0  0
   -2.0046  -12.7663    0.0000 N   0  0  0  0  0  0  0  0  0  0  0  0
   -3.3037  -12.0163    0.0000 C   0  0  0  0  0  0  0  0  0  0  0  0
   -2.9918  -10.5491    0.0000 S   0  0  0  0  0  0  0  0  0  0  0  0
   -3.7500   -6.4952    0.0000 C   0  0  0  0  0  0  0  0  0  0  0  0
   -5.2500   -6.4952    0.0000 C   0  0  0  0  0  0  0  0  0  0  0  0
   -3.0000   -7.7942    0.0000 C   0  0  0  0  0  0  0  0  0  0  0  0
   -5.3899    1.3703    0.0000 C   0  0  0  0  0  0  0  0  0  0  0  0
   -6.5046    2.3740    0.0000 S   0  0  0  0  0  0  0  0  0  0  0  0
  1  2  1  0
  2  3  1  0
  2  4  1  0
  4  5  2  0
  5  6  1  0
  6  7  1  0
  7  8  1  0
  8  9  1  0
  8 10  1  0
 10 11  2  0
 10 12  1  0
 13 12  1  6
 13 14  1  0
 14 15  2  0
 14 16  1  0
 16 17  1  0
 17 18  1  1
 18 19  1  0
 19 20  2  0
 20 21  1  0
 21 22  2  0
 22 23  1  0
 23 24  2  0
 17 25  1  0
 25 26  1  0
 26 27  1  6
 26 28  1  0
 28 29  1  6
 29 30  1  0
 30 31  2  0
 31 32  1  0
 32 33  2  0
 33 34  1  0
 34 35  2  0
 28 36  1  0
 36 37  1  0
 37 38  2  0
 37 39  1  0
 39 40  1  0
 40 41  1  0
 41 42  2  0
 42 43  1  0
 43 44  2  0
 44 45  1  0
 13 46  1  0
 46 47  1  0
 46 48  1  0
  6 49  2  0
 49 50  1  0
 50  4  1  0
 24 19  1  0
 35 30  1  0
 45 41  1  0
M  END
>  <assay_description>  (311) 
Inhibition of human BSEP overexpressed in Sf9 cell membrane vesicles assessed as uptake of [3H]-taurocholate in presence of ATP measured after 15 to 20 mins by membrane vesicle transport assay

>  <molecule_pref_name>  (311) 
RITONAVIR

>  <canonical_smiles>  (311) 
CC(C)c1nc(CN(C)C(=O)N[C@H](C(=O)N[C@@H](Cc2ccccc2)C[C@H](O)[C@H](Cc2ccccc2)NC(=O)OCc2cncs2)C(C)C)cs1

>  <pchembl_value>  (311) 
5.76

>  <standard_type>  (311) 
IC50

>  <standard_relation>  (311) 
=

>  <standard_value>  (311) 
1740.0

>  <standard_units>  (311) 
nM

>  <target_pref_name>  (311) 
Bile salt export pump

>  <target_organism>  (311) 
Homo sapiens

$$$$
CHEMBL374975
     RDKit          2D

 37 40  0  0  0  0  0  0  0  0999 V2000
   -0.9510    8.6563    0.0000 C   0  0  0  0  0  0  0  0  0  0  0  0
   -0.9510    7.1563    0.0000 C   0  0  0  0  0  0  0  0  0  0  0  0
    0.3481    6.4063    0.0000 O   0  0  0  0  0  0  0  0  0  0  0  0
   -2.2500    6.4063    0.0000 O   0  0  0  0  0  0  0  0  0  0  0  0
   -2.2500    4.9063    0.0000 C   0  0  0  0  0  0  0  0  0  0  0  0
   -1.0365    4.0247    0.0000 C   0  0  0  0  0  0  0  0  0  0  0  0
   -1.5000    2.5981    0.0000 C   0  0  0  0  0  0  0  0  0  0  0  0
   -0.4345    2.8441    0.0000 C   0  0  0  0  0  0  0  0  0  0  0  0
   -3.0000    2.5981    0.0000 C   0  0  0  0  0  0  0  0  0  0  0  0
   -3.7500    1.2990    0.0000 C   0  0  0  0  0  0  0  0  0  0  0  0
   -3.0000    0.0000    0.0000 C   0  0  0  0  0  0  0  0  0  0  0  0
   -3.7500   -1.2990    0.0000 O   0  0  0  0  0  0  0  0  0  0  0  0
   -1.5000    0.0000    0.0000 C   0  0  0  0  0  0  0  0  0  0  0  0
   -0.7500   -1.2990    0.0000 C   0  0  0  0  0  0  0  0  0  0  0  0
   -2.2500   -1.2990    0.0000 C   0  0  0  0  0  0  0  0  0  0  0  0
   -1.5000   -2.5981    0.0000 C   0  0  0  0  0  0  0  0  0  0  0  0
   -0.7500   -3.8971    0.0000 C   0  0  0  0  0  0  0  0  0  0  0  0
    0.7500   -3.8971    0.0000 C   0  0  0  0  0  0  0  0  0  0  0  0
    1.5000   -5.1962    0.0000 O   0  0  0  0  0  0  0  0  0  0  0  0
    1.5000   -2.5981    0.0000 C   0  0  0  0  0  0  0  0  0  0  0  0
    3.0000   -2.5981    0.0000 C   0  0  0  0  0  0  0  0  0  0  0  0
    0.7500   -1.2990    0.0000 C   0  0  0  0  0  0  0  0  0  0  0  0
    1.5000    0.0000    0.0000 C   0  0  0  0  0  0  0  0  0  0  0  0
    0.7500    1.2990    0.0000 C   0  0  0  0  0  0  0  0  0  0  0  0
   -0.7500    1.2990    0.0000 C   0  0  0  0  0  0  0  0  0  0  0  0
   -0.0919    2.1723    0.0000 C   0  0  0  0  0  0  0  0  0  0  0  0
   -3.4635    4.0247    0.0000 C   0  0  0  0  0  0  0  0  0  0  0  0
   -4.8901    4.4882    0.0000 C   0  0  0  0  0  0  0  0  0  0  0  0
   -6.0048    3.4845    0.0000 C   0  0  0  0  0  0  0  0  0  0  0  0
   -7.4314    3.9480    0.0000 C   0  0  0  0  0  0  0  0  0  0  0  0
   -8.5461    2.9443    0.0000 C   0  0  0  0  0  0  0  0  0  0  0  0
   -9.9727    3.4078    0.0000 C   0  0  0  0  0  0  0  0  0  0  0  0
  -11.0874    2.4041    0.0000 C   0  0  0  0  0  0  0  0  0  0  0  0
  -10.2846    4.8751    0.0000 C   0  0  0  0  0  0  0  0  0  0  0  0
   -5.2020    5.9554    0.0000 C   0  0  0  0  0  0  0  0  0  0  0  0
   -4.0873    6.9591    0.0000 O   0  0  0  0  0  0  0  0  0  0  0  0
   -6.6286    6.4189    0.0000 O   0  0  0  0  0  0  0  0  0  0  0  0
  1  2  1  0
  2  3  2  0
  2  4  1  0
  5  4  1  1
  5  6  1  0
  6  7  1  0
  7  8  1  1
  7  9  1  0
  9 10  1  1
 10 11  1  0
 11 12  1  6
 13 11  1  6
 13 14  1  0
 14 15  1  1
 14 16  1  0
 16 17  1  0
 17 18  1  0
 18 19  1  6
 18 20  1  0
 20 21  1  6
 20 22  1  0
 22 23  1  1
 23 24  1  0
 24 25  1  0
 25 26  1  6
  9 27  1  0
 27 28  2  0
 28 29  1  0
 29 30  1  0
 30 31  1  0
 31 32  2  3
 32 33  1  0
 32 34  1  0
 28 35  1  0
 35 36  2  0
 35 37  1  0
 27  5  1  0
 25  7  1  0
 25 13  1  0
 22 14  1  0
M  END
>  <assay_description>  (312) 
Inhibition of human BSEP overexpressed in Sf9 cell membrane vesicles assessed as uptake of [3H]-taurocholate in presence of ATP measured after 15 to 20 mins by membrane vesicle transport assay

>  <molecule_pref_name>  (312) 
FUSIDIC ACID

>  <canonical_smiles>  (312) 
CC(=O)O[C@H]1C[C@@]2(C)[C@@H](C[C@@H](O)[C@H]3[C@@]4(C)CC[C@@H](O)[C@@H](C)[C@@H]4CC[C@@]32C)/C1=C(\CCC=C(C)C)C(=O)O

>  <pchembl_value>  (312) 
5.00

>  <standard_type>  (312) 
IC50

>  <standard_relation>  (312) 
=

>  <standard_value>  (312) 
10100.0

>  <standard_units>  (312) 
nM

>  <target_pref_name>  (312) 
Bile salt export pump

>  <target_organism>  (312) 
Homo sapiens

$$$$
CHEMBL1456
     RDKit          2D

 31 33  0  0  0  0  0  0  0  0999 V2000
   -2.6380    5.6918    0.0000 C   0  0  0  0  0  0  0  0  0  0  0  0
   -2.9499    4.2246    0.0000 O   0  0  0  0  0  0  0  0  0  0  0  0
   -1.8351    3.2209    0.0000 C   0  0  0  0  0  0  0  0  0  0  0  0
   -2.1470    1.7537    0.0000 C   0  0  0  0  0  0  0  0  0  0  0  0
   -3.5736    1.2902    0.0000 C   0  0  0  0  0  0  0  0  0  0  0  0
   -1.0323    0.7500    0.0000 C   0  0  0  0  0  0  0  0  0  0  0  0
    0.3943    1.2135    0.0000 C   0  0  0  0  0  0  0  0  0  0  0  0
    0.7062    2.6807    0.0000 C   0  0  0  0  0  0  0  0  0  0  0  0
    2.1328    3.1443    0.0000 O   0  0  0  0  0  0  0  0  0  0  0  0
   -0.4086    3.6844    0.0000 C   0  0  0  0  0  0  0  0  0  0  0  0
   -0.0967    5.1517    0.0000 C   0  0  0  0  0  0  0  0  0  0  0  0
    1.3299    5.6152    0.0000 C   0  0  0  0  0  0  0  0  0  0  0  0
    1.6418    7.0824    0.0000 C   0  0  0  0  0  0  0  0  0  0  0  0
    0.5271    8.0861    0.0000 C   0  0  0  0  0  0  0  0  0  0  0  0
    3.0684    7.5459    0.0000 C   0  0  0  0  0  0  0  0  0  0  0  0
    4.1831    6.5422    0.0000 C   0  0  0  0  0  0  0  0  0  0  0  0
    5.6097    7.0058    0.0000 C   0  0  0  0  0  0  0  0  0  0  0  0
    5.9215    8.4730    0.0000 O   0  0  0  0  0  0  0  0  0  0  0  0
    6.7244    6.0021    0.0000 O   0  0  0  0  0  0  0  0  0  0  0  0
    8.1510    6.4656    0.0000 C   0  0  0  0  0  0  0  0  0  0  0  0
    9.2657    5.4619    0.0000 C   0  0  0  0  0  0  0  0  0  0  0  0
   10.6923    5.9254    0.0000 N   0  0  0  0  0  0  0  0  0  0  0  0
   11.8070    4.9217    0.0000 C   0  0  0  0  0  0  0  0  0  0  0  0
   13.2336    5.3853    0.0000 C   0  0  0  0  0  0  0  0  0  0  0  0
   13.5454    6.8525    0.0000 O   0  0  0  0  0  0  0  0  0  0  0  0
   12.4307    7.8562    0.0000 C   0  0  0  0  0  0  0  0  0  0  0  0
   11.0041    7.3926    0.0000 C   0  0  0  0  0  0  0  0  0  0  0  0
    1.2760    0.0000    0.0000 C   0  0  0  0  0  0  0  0  0  0  0  0
    2.7760    0.0000    0.0000 O   0  0  0  0  0  0  0  0  0  0  0  0
    0.3943   -1.2135    0.0000 O   0  0  0  0  0  0  0  0  0  0  0  0
   -1.0323   -0.7500    0.0000 C   0  0  0  0  0  0  0  0  0  0  0  0
  1  2  1  0
  2  3  1  0
  3  4  2  0
  4  5  1  0
  4  6  1  0
  6  7  2  0
  7  8  1  0
  8  9  1  0
  8 10  2  0
 10 11  1  0
 11 12  1  0
 12 13  2  0
 13 14  1  0
 13 15  1  0
 15 16  1  0
 16 17  1  0
 17 18  2  0
 17 19  1  0
 19 20  1  0
 20 21  1  0
 21 22  1  0
 22 23  1  0
 23 24  1  0
 24 25  1  0
 25 26  1  0
 26 27  1  0
  7 28  1  0
 28 29  2  0
 28 30  1  0
 30 31  1  0
 10  3  1  0
 27 22  1  0
 31  6  1  0
M  END
>  <assay_description>  (313) 
Inhibition of human BSEP overexpressed in Sf9 cell membrane vesicles assessed as uptake of [3H]-taurocholate in presence of ATP measured after 15 to 20 mins by membrane vesicle transport assay

>  <molecule_pref_name>  (313) 
MYCOPHENOLATE MOFETIL

>  <canonical_smiles>  (313) 
COc1c(C)c2c(c(O)c1C/C=C(\C)CCC(=O)OCCN1CCOCC1)C(=O)OC2

>  <pchembl_value>  (313) 
4.12

>  <standard_type>  (313) 
IC50

>  <standard_relation>  (313) 
=

>  <standard_value>  (313) 
76000.0

>  <standard_units>  (313) 
nM

>  <target_pref_name>  (313) 
Bile salt export pump

>  <target_organism>  (313) 
Homo sapiens

$$$$
CHEMBL223643
     RDKit          2D

 78 78  0  0  0  0  0  0  0  0999 V2000
   10.8553   -1.2990    0.0000 C   0  0  0  0  0  0  0  0  0  0  0  0
   10.1053    0.0000    0.0000 C   0  0  0  0  0  0  0  0  0  0  0  0
   10.8553    1.2990    0.0000 C   0  0  0  0  0  0  0  0  0  0  0  0
    8.6053    0.0000    0.0000 C   0  0  0  0  0  0  0  0  0  0  0  0
    8.4746   -1.4943    0.0000 N   0  0  0  0  0  0  0  0  0  0  0  0
    8.0863   -2.9432    0.0000 C   0  0  0  0  0  0  0  0  0  0  0  0
    9.4959   -3.4562    0.0000 O   0  0  0  0  0  0  0  0  0  0  0  0
    7.4524   -4.3026    0.0000 C   0  0  0  0  0  0  0  0  0  0  0  0
    8.7514   -5.0526    0.0000 C   0  0  0  0  0  0  0  0  0  0  0  0
    6.5920   -5.5314    0.0000 O   0  0  0  0  0  0  0  0  0  0  0  0
    5.5314   -6.5920    0.0000 C   0  0  0  0  0  0  0  0  0  0  0  0
    6.4956   -7.7411    0.0000 O   0  0  0  0  0  0  0  0  0  0  0  0
    4.3026   -7.4524    0.0000 C   0  0  0  0  0  0  0  0  0  0  0  0
    5.0526   -8.7514    0.0000 C   0  0  0  0  0  0  0  0  0  0  0  0
    4.3026  -10.0505    0.0000 C   0  0  0  0  0  0  0  0  0  0  0  0
    6.5526   -8.7514    0.0000 C   0  0  0  0  0  0  0  0  0  0  0  0
    2.9432   -8.0863    0.0000 N   0  0  0  0  0  0  0  0  0  0  0  0
    1.4943   -8.4746    0.0000 C   0  0  0  0  0  0  0  0  0  0  0  0
    1.7548   -9.9518    0.0000 O   0  0  0  0  0  0  0  0  0  0  0  0
   -0.0000   -8.6053    0.0000 C   0  0  0  0  0  0  0  0  0  0  0  0
    0.0000  -10.1053    0.0000 C   0  0  0  0  0  0  0  0  0  0  0  0
   -1.2990  -10.8553    0.0000 C   0  0  0  0  0  0  0  0  0  0  0  0
    1.2990  -10.8553    0.0000 C   0  0  0  0  0  0  0  0  0  0  0  0
   -1.4943   -8.4746    0.0000 O   0  0  0  0  0  0  0  0  0  0  0  0
   -2.9432   -8.0863    0.0000 C   0  0  0  0  0  0  0  0  0  0  0  0
   -3.4562   -9.4959    0.0000 O   0  0  0  0  0  0  0  0  0  0  0  0
   -4.3026   -7.4524    0.0000 C   0  0  0  0  0  0  0  0  0  0  0  0
   -5.0526   -8.7514    0.0000 C   0  0  0  0  0  0  0  0  0  0  0  0
   -6.5526   -8.7514    0.0000 C   0  0  0  0  0  0  0  0  0  0  0  0
   -4.3026  -10.0505    0.0000 C   0  0  0  0  0  0  0  0  0  0  0  0
   -5.5314   -6.5920    0.0000 N   0  0  0  0  0  0  0  0  0  0  0  0
   -6.5920   -5.5314    0.0000 C   0  0  0  0  0  0  0  0  0  0  0  0
   -7.7411   -6.4956    0.0000 O   0  0  0  0  0  0  0  0  0  0  0  0
   -7.4524   -4.3026    0.0000 C   0  0  0  0  0  0  0  0  0  0  0  0
   -8.7514   -5.0526    0.0000 C   0  0  0  0  0  0  0  0  0  0  0  0
   -8.0863   -2.9432    0.0000 O   0  0  0  0  0  0  0  0  0  0  0  0
   -8.4746   -1.4943    0.0000 C   0  0  0  0  0  0  0  0  0  0  0  0
   -9.9518   -1.7548    0.0000 O   0  0  0  0  0  0  0  0  0  0  0  0
   -8.6053    0.0000    0.0000 C   0  0  0  0  0  0  0  0  0  0  0  0
  -10.1053    0.0000    0.0000 C   0  0  0  0  0  0  0  0  0  0  0  0
  -10.8553    1.2990    0.0000 C   0  0  0  0  0  0  0  0  0  0  0  0
  -10.8553   -1.2990    0.0000 C   0  0  0  0  0  0  0  0  0  0  0  0
   -8.4746    1.4943    0.0000 N   0  0  0  0  0  0  0  0  0  0  0  0
   -8.0863    2.9432    0.0000 C   0  0  0  0  0  0  0  0  0  0  0  0
   -9.4959    3.4562    0.0000 O   0  0  0  0  0  0  0  0  0  0  0  0
   -7.4524    4.3026    0.0000 C   0  0  0  0  0  0  0  0  0  0  0  0
   -8.7514    5.0526    0.0000 C   0  0  0  0  0  0  0  0  0  0  0  0
   -8.7514    6.5526    0.0000 C   0  0  0  0  0  0  0  0  0  0  0  0
  -10.0505    4.3026    0.0000 C   0  0  0  0  0  0  0  0  0  0  0  0
   -6.5920    5.5314    0.0000 O   0  0  0  0  0  0  0  0  0  0  0  0
   -5.5314    6.5920    0.0000 C   0  0  0  0  0  0  0  0  0  0  0  0
   -6.4956    7.7411    0.0000 O   0  0  0  0  0  0  0  0  0  0  0  0
   -4.3026    7.4524    0.0000 C   0  0  0  0  0  0  0  0  0  0  0  0
   -5.0526    8.7514    0.0000 C   0  0  0  0  0  0  0  0  0  0  0  0
   -4.3026   10.0505    0.0000 C   0  0  0  0  0  0  0  0  0  0  0  0
   -6.5526    8.7514    0.0000 C   0  0  0  0  0  0  0  0  0  0  0  0
   -2.9432    8.0863    0.0000 N   0  0  0  0  0  0  0  0  0  0  0  0
   -1.4943    8.4746    0.0000 C   0  0  0  0  0  0  0  0  0  0  0  0
   -1.7548    9.9518    0.0000 O   0  0  0  0  0  0  0  0  0  0  0  0
    0.0000    8.6053    0.0000 C   0  0  0  0  0  0  0  0  0  0  0  0
    0.0000   10.1053    0.0000 C   0  0  0  0  0  0  0  0  0  0  0  0
    1.4943    8.4746    0.0000 O   0  0  0  0  0  0  0  0  0  0  0  0
    2.9432    8.0863    0.0000 C   0  0  0  0  0  0  0  0  0  0  0  0
    3.4562    9.4959    0.0000 O   0  0  0  0  0  0  0  0  0  0  0  0
    4.3026    7.4524    0.0000 C   0  0  0  0  0  0  0  0  0  0  0  0
    5.0526    8.7514    0.0000 C   0  0  0  0  0  0  0  0  0  0  0  0
    6.5526    8.7514    0.0000 C   0  0  0  0  0  0  0  0  0  0  0  0
    4.3026   10.0505    0.0000 C   0  0  0  0  0  0  0  0  0  0  0  0
    5.5314    6.5920    0.0000 N   0  0  0  0  0  0  0  0  0  0  0  0
    6.5920    5.5314    0.0000 C   0  0  0  0  0  0  0  0  0  0  0  0
    7.7411    6.4956    0.0000 O   0  0  0  0  0  0  0  0  0  0  0  0
    7.4524    4.3026    0.0000 C   0  0  0  0  0  0  0  0  0  0  0  0
    8.7514    5.0526    0.0000 C   0  0  0  0  0  0  0  0  0  0  0  0
   10.0505    4.3026    0.0000 C   0  0  0  0  0  0  0  0  0  0  0  0
    8.7514    6.5526    0.0000 C   0  0  0  0  0  0  0  0  0  0  0  0
    8.0863    2.9432    0.0000 O   0  0  0  0  0  0  0  0  0  0  0  0
    8.4746    1.4943    0.0000 C   0  0  0  0  0  0  0  0  0  0  0  0
    9.9518    1.7548    0.0000 O   0  0  0  0  0  0  0  0  0  0  0  0
  1  2  1  0
  2  3  1  0
  4  2  1  6
  4  5  1  0
  5  6  1  0
  6  7  2  0
  6  8  1  0
  8  9  1  6
  8 10  1  0
 10 11  1  0
 11 12  2  0
 11 13  1  0
 13 14  1  1
 14 15  1  0
 14 16  1  0
 13 17  1  0
 17 18  1  0
 18 19  2  0
 18 20  1  0
 20 21  1  1
 21 22  1  0
 21 23  1  0
 20 24  1  0
 24 25  1  0
 25 26  2  0
 25 27  1  0
 27 28  1  6
 28 29  1  0
 28 30  1  0
 27 31  1  0
 31 32  1  0
 32 33  2  0
 32 34  1  0
 34 35  1  6
 34 36  1  0
 36 37  1  0
 37 38  2  0
 37 39  1  0
 39 40  1  1
 40 41  1  0
 40 42  1  0
 39 43  1  0
 43 44  1  0
 44 45  2  0
 44 46  1  0
 46 47  1  1
 47 48  1  0
 47 49  1  0
 46 50  1  0
 50 51  1  0
 51 52  2  0
 51 53  1  0
 53 54  1  6
 54 55  1  0
 54 56  1  0
 53 57  1  0
 57 58  1  0
 58 59  2  0
 58 60  1  0
 60 61  1  6
 60 62  1  0
 62 63  1  0
 63 64  2  0
 63 65  1  0
 65 66  1  1
 66 67  1  0
 66 68  1  0
 65 69  1  0
 69 70  1  0
 70 71  2  0
 70 72  1  0
 72 73  1  1
 73 74  1  0
 73 75  1  0
 72 76  1  0
 76 77  1  0
 77 78  2  0
 77  4  1  0
M  END
>  <assay_description>  (314) 
Inhibition of human BSEP overexpressed in Sf9 cell membrane vesicles assessed as uptake of [3H]-taurocholate in presence of ATP measured after 15 to 20 mins by membrane vesicle transport assay

>  <molecule_pref_name>  (314) 
VALINOMYCIN

>  <canonical_smiles>  (314) 
CC(C)[C@@H]1NC(=O)[C@H](C)OC(=O)[C@@H](C(C)C)NC(=O)[C@@H](C(C)C)OC(=O)[C@H](C(C)C)NC(=O)[C@H](C)OC(=O)[C@@H](C(C)C)NC(=O)[C@@H](C(C)C)OC(=O)[C@H](C(C)C)NC(=O)[C@H](C)OC(=O)[C@@H](C(C)C)NC(=O)[C@@H](C(C)C)OC1=O

>  <pchembl_value>  (314) 
5.81

>  <standard_type>  (314) 
IC50

>  <standard_relation>  (314) 
=

>  <standard_value>  (314) 
1560.0

>  <standard_units>  (314) 
nM

>  <target_pref_name>  (314) 
Bile salt export pump

>  <target_organism>  (314) 
Homo sapiens

$$$$
CHEMBL1200476
     RDKit          2D

 68 69  0  0  0  0  0  0  0  0999 V2000
    0.0000    6.2974    0.0000 C   0  0  0  0  0  0  0  0  0  0  0  0
    1.2990    7.0474    0.0000 C   0  0  0  0  0  0  0  0  0  0  0  0
    2.5981    6.2974    0.0000 C   0  0  0  0  0  0  0  0  0  0  0  0
    3.8971    7.0474    0.0000 C   0  0  0  0  0  0  0  0  0  0  0  0
    5.1962    6.2974    0.0000 C   0  0  0  0  0  0  0  0  0  0  0  0
    6.4952    7.0474    0.0000 C   0  0  0  0  0  0  0  0  0  0  0  0
    7.7942    6.2974    0.0000 C   0  0  0  0  0  0  0  0  0  0  0  0
    9.0933    7.0474    0.0000 C   0  0  0  0  0  0  0  0  0  0  0  0
   10.3923    6.2974    0.0000 C   0  0  0  0  0  0  0  0  0  0  0  0
   11.6913    7.0474    0.0000 C   0  0  0  0  0  0  0  0  0  0  0  0
   12.9904    6.2974    0.0000 C   0  0  0  0  0  0  0  0  0  0  0  0
   14.2894    7.0474    0.0000 C   0  0  0  0  0  0  0  0  0  0  0  0
   15.5885    6.2974    0.0000 O   0  0  0  0  0  0  0  0  0  0  0  0
   16.8875    7.0474    0.0000 S   0  0  0  0  0  0  0  0  0  0  0  0
   16.1375    8.3464    0.0000 O   0  0  0  0  0  0  0  0  0  0  0  0
   17.6375    5.7484    0.0000 O   0  0  0  0  0  0  0  0  0  0  0  0
   18.1865    7.7974    0.0000 O   0  0  0  0  0  0  0  0  0  0  0  0
    5.6205   -1.2990    0.0000 C   0  0  0  0  0  0  0  0  0  0  0  0
    4.8705    0.0000    0.0000 C   0  0  0  0  0  0  0  0  0  0  0  0
    3.3705    0.0000    0.0000 C   0  0  0  0  0  0  0  0  0  0  0  0
    3.0367   -1.4624    0.0000 O   0  0  0  0  0  0  0  0  0  0  0  0
    2.1015   -2.6351    0.0000 C   0  0  0  0  0  0  0  0  0  0  0  0
    3.0367   -3.8079    0.0000 O   0  0  0  0  0  0  0  0  0  0  0  0
    0.7500   -3.2860    0.0000 C   0  0  0  0  0  0  0  0  0  0  0  0
    1.3600   -4.4903    0.0000 C   0  0  0  0  0  0  0  0  0  0  0  0
   -0.7500   -3.2860    0.0000 C   0  0  0  0  0  0  0  0  0  0  0  0
   -1.0838   -4.7484    0.0000 O   0  0  0  0  0  0  0  0  0  0  0  0
    0.0158   -5.7686    0.0000 C   0  0  0  0  0  0  0  0  0  0  0  0
   -0.3180   -7.2310    0.0000 C   0  0  0  0  0  0  0  0  0  0  0  0
    0.7816   -8.2513    0.0000 C   0  0  0  0  0  0  0  0  0  0  0  0
    1.4659   -9.5861    0.0000 C   0  0  0  0  0  0  0  0  0  0  0  0
   -0.4141   -9.1570    0.0000 O   0  0  0  0  0  0  0  0  0  0  0  0
   -0.2276  -10.6453    0.0000 C   0  0  0  0  0  0  0  0  0  0  0  0
    2.2150   -7.8091    0.0000 C   0  0  0  0  0  0  0  0  0  0  0  0
    3.3145   -8.8294    0.0000 O   0  0  0  0  0  0  0  0  0  0  0  0
    2.5487   -6.3467    0.0000 C   0  0  0  0  0  0  0  0  0  0  0  0
    3.9821   -5.9046    0.0000 C   0  0  0  0  0  0  0  0  0  0  0  0
    1.4492   -5.3265    0.0000 O   0  0  0  0  0  0  0  0  0  0  0  0
   -2.1015   -2.6351    0.0000 C   0  0  0  0  0  0  0  0  0  0  0  0
   -3.0367   -3.8079    0.0000 C   0  0  0  0  0  0  0  0  0  0  0  0
   -3.0367   -1.4624    0.0000 C   0  0  0  0  0  0  0  0  0  0  0  0
   -4.3881   -2.1132    0.0000 O   0  0  0  0  0  0  0  0  0  0  0  0
   -5.6275   -1.2682    0.0000 C   0  0  0  0  0  0  0  0  0  0  0  0
   -5.5154    0.2276    0.0000 O   0  0  0  0  0  0  0  0  0  0  0  0
   -6.7548    1.0725    0.0000 C   0  0  0  0  0  0  0  0  0  0  0  0
   -6.6427    2.5684    0.0000 C   0  0  0  0  0  0  0  0  0  0  0  0
   -8.1062    0.4217    0.0000 C   0  0  0  0  0  0  0  0  0  0  0  0
   -8.2183   -1.0741    0.0000 C   0  0  0  0  0  0  0  0  0  0  0  0
   -9.5698   -1.7249    0.0000 N   0  0  0  0  0  0  0  0  0  0  0  0
  -10.8091   -0.8799    0.0000 C   0  0  0  0  0  0  0  0  0  0  0  0
   -9.6819   -3.2207    0.0000 C   0  0  0  0  0  0  0  0  0  0  0  0
   -6.9790   -1.9191    0.0000 C   0  0  0  0  0  0  0  0  0  0  0  0
   -7.0910   -3.4149    0.0000 O   0  0  0  0  0  0  0  0  0  0  0  0
   -3.3705    0.0000    0.0000 C   0  0  0  0  0  0  0  0  0  0  0  0
   -4.6098   -0.8450    0.0000 C   0  0  0  0  0  0  0  0  0  0  0  0
   -4.6098    0.8450    0.0000 O   0  0  0  0  0  0  0  0  0  0  0  0
   -3.0367    1.4624    0.0000 C   0  0  0  0  0  0  0  0  0  0  0  0
   -2.1015    2.6351    0.0000 C   0  0  0  0  0  0  0  0  0  0  0  0
   -3.0367    3.8079    0.0000 C   0  0  0  0  0  0  0  0  0  0  0  0
   -0.7500    3.2860    0.0000 C   0  0  0  0  0  0  0  0  0  0  0  0
   -1.0838    4.7484    0.0000 O   0  0  0  0  0  0  0  0  0  0  0  0
    0.7500    3.2860    0.0000 C   0  0  0  0  0  0  0  0  0  0  0  0
    1.0838    4.7484    0.0000 C   0  0  0  0  0  0  0  0  0  0  0  0
    2.1015    2.6351    0.0000 C   0  0  0  0  0  0  0  0  0  0  0  0
    3.0367    3.8079    0.0000 O   0  0  0  0  0  0  0  0  0  0  0  0
    3.0367    1.4624    0.0000 C   0  0  0  0  0  0  0  0  0  0  0  0
    3.7867    2.7614    0.0000 C   0  0  0  0  0  0  0  0  0  0  0  0
    4.5199    1.2388    0.0000 O   0  0  0  0  0  0  0  0  0  0  0  0
  1  2  1  0
  2  3  1  0
  3  4  1  0
  4  5  1  0
  5  6  1  0
  6  7  1  0
  7  8  1  0
  8  9  1  0
  9 10  1  0
 10 11  1  0
 11 12  1  0
 12 13  1  0
 13 14  1  0
 14 15  2  0
 14 16  2  0
 14 17  1  0
 18 19  1  0
 20 19  1  1
 20 21  1  0
 21 22  1  0
 22 23  2  0
 22 24  1  0
 24 25  1  6
 24 26  1  0
 26 27  1  1
 28 27  1  6
 28 29  1  0
 29 30  1  0
 30 31  1  1
 30 32  1  0
 32 33  1  0
 30 34  1  0
 34 35  1  6
 34 36  1  0
 36 37  1  1
 36 38  1  0
 26 39  1  0
 39 40  1  6
 39 41  1  0
 41 42  1  1
 43 42  1  1
 43 44  1  0
 44 45  1  0
 45 46  1  1
 45 47  1  0
 47 48  1  0
 48 49  1  1
 49 50  1  0
 49 51  1  0
 48 52  1  0
 52 53  1  6
 41 54  1  0
 54 55  1  1
 54 56  1  0
 54 57  1  0
 57 58  1  0
 58 59  1  1
 58 60  1  0
 60 61  2  0
 60 62  1  0
 62 63  1  6
 62 64  1  0
 64 65  1  1
 64 66  1  0
 66 67  1  1
 66 68  1  0
 66 20  1  0
 38 28  1  0
 52 43  1  0
M  END
>  <assay_description>  (315) 
Inhibition of human BSEP overexpressed in Sf9 cell membrane vesicles assessed as uptake of [3H]-taurocholate in presence of ATP measured after 15 to 20 mins by membrane vesicle transport assay

>  <molecule_pref_name>  (315) 
None

>  <canonical_smiles>  (315) 
CCCCCCCCCCCCOS(=O)(=O)O.CC[C@H]1OC(=O)[C@H](C)[C@@H](O[C@H]2C[C@@](C)(OC)[C@@H](O)[C@H](C)O2)[C@H](C)[C@@H](O[C@@H]2O[C@H](C)C[C@H](N(C)C)[C@H]2O)[C@](C)(O)C[C@@H](C)C(=O)[C@H](C)[C@@H](O)[C@]1(C)O

>  <pchembl_value>  (315) 
4.89

>  <standard_type>  (315) 
IC50

>  <standard_relation>  (315) 
=

>  <standard_value>  (315) 
13000.0

>  <standard_units>  (315) 
nM

>  <target_pref_name>  (315) 
Bile salt export pump

>  <target_organism>  (315) 
Homo sapiens

$$$$
CHEMBL428496
     RDKit          2D

 31 35  0  0  0  0  0  0  0  0999 V2000
   -3.7527    6.6955    0.0000 C   0  0  0  0  0  0  0  0  0  0  0  0
   -2.6380    5.6918    0.0000 O   0  0  0  0  0  0  0  0  0  0  0  0
   -2.9499    4.2246    0.0000 C   0  0  0  0  0  0  0  0  0  0  0  0
   -1.8351    3.2209    0.0000 C   0  0  0  0  0  0  0  0  0  0  0  0
   -0.4086    3.6844    0.0000 O   0  0  0  0  0  0  0  0  0  0  0  0
    0.7062    2.6807    0.0000 C   0  0  0  0  0  0  0  0  0  0  0  0
    2.1328    3.1443    0.0000 O   0  0  0  0  0  0  0  0  0  0  0  0
    0.3943    1.2135    0.0000 C   0  0  0  0  0  0  0  0  0  0  0  0
    1.2760    0.0000    0.0000 C   0  0  0  0  0  0  0  0  0  0  0  0
    0.3943   -1.2135    0.0000 O   0  0  0  0  0  0  0  0  0  0  0  0
   -1.0323   -0.7500    0.0000 C   0  0  0  0  0  0  0  0  0  0  0  0
   -1.0323    0.7500    0.0000 C   0  0  0  0  0  0  0  0  0  0  0  0
   -2.1470    1.7537    0.0000 C   0  0  0  0  0  0  0  0  0  0  0  0
   -3.2378    1.6775    0.0000 C   0  0  0  0  0  0  0  0  0  0  0  0
   -3.4593    1.0134    0.0000 C   0  0  0  0  0  0  0  0  0  0  0  0
   -3.6161   -0.4784    0.0000 C   0  0  0  0  0  0  0  0  0  0  0  0
   -2.4026   -1.3601    0.0000 C   0  0  0  0  0  0  0  0  0  0  0  0
   -2.5594   -2.8519    0.0000 O   0  0  0  0  0  0  0  0  0  0  0  0
   -4.9864   -1.0885    0.0000 C   0  0  0  0  0  0  0  0  0  0  0  0
   -5.4500   -2.5151    0.0000 C   0  0  0  0  0  0  0  0  0  0  0  0
   -6.9500   -2.5151    0.0000 C   0  0  0  0  0  0  0  0  0  0  0  0
   -7.4135   -1.0885    0.0000 C   0  0  0  0  0  0  0  0  0  0  0  0
   -8.8401   -0.6250    0.0000 O   0  0  0  0  0  0  0  0  0  0  0  0
   -6.2000   -0.2069    0.0000 C   0  0  0  0  0  0  0  0  0  0  0  0
   -7.4990    0.5431    0.0000 C   0  0  0  0  0  0  0  0  0  0  0  0
   -6.0432    1.2849    0.0000 C   0  0  0  0  0  0  0  0  0  0  0  0
   -4.6729    1.8950    0.0000 C   0  0  0  0  0  0  0  0  0  0  0  0
   -4.5161    3.3868    0.0000 O   0  0  0  0  0  0  0  0  0  0  0  0
   -5.7296    4.2685    0.0000 C   0  0  0  0  0  0  0  0  0  0  0  0
   -5.5728    5.7603    0.0000 C   0  0  0  0  0  0  0  0  0  0  0  0
   -7.0999    3.6584    0.0000 O   0  0  0  0  0  0  0  0  0  0  0  0
  1  2  1  0
  2  3  1  0
  4  3  1  1
  4  5  1  0
  5  6  1  0
  6  7  2  0
  6  8  1  0
  8  9  2  0
  9 10  1  0
 10 11  1  0
 11 12  2  0
 12 13  1  0
 13 14  1  6
 13 15  1  0
 15 16  2  0
 16 17  1  0
 17 18  2  0
 16 19  1  0
 19 20  1  6
 20 21  1  0
 21 22  1  0
 22 23  2  0
 22 24  1  0
 24 25  1  6
 24 26  1  0
 26 27  1  0
 27 28  1  1
 28 29  1  0
 29 30  1  0
 29 31  2  0
 13  4  1  0
 27 15  1  0
 12  8  1  0
 24 19  1  0
 17 11  1  0
M  END
>  <assay_description>  (316) 
Inhibition of human BSEP overexpressed in Sf9 cell membrane vesicles assessed as uptake of [3H]-taurocholate in presence of ATP measured after 15 to 20 mins by membrane vesicle transport assay

>  <molecule_pref_name>  (316) 
WORTMANNIN

>  <canonical_smiles>  (316) 
COC[C@H]1OC(=O)c2coc3c2[C@@]1(C)C1=C(C3=O)[C@@H]2CCC(=O)[C@@]2(C)C[C@H]1OC(C)=O

>  <pchembl_value>  (316) 
4.87

>  <standard_type>  (316) 
IC50

>  <standard_relation>  (316) 
=

>  <standard_value>  (316) 
13600.0

>  <standard_units>  (316) 
nM

>  <target_pref_name>  (316) 
Bile salt export pump

>  <target_organism>  (316) 
Homo sapiens

$$$$
CHEMBL691
     RDKit          2D

 22 25  0  0  0  0  0  0  0  0999 V2000
   -4.9635   -9.2208    0.0000 C   0  0  0  0  0  0  0  0  0  0  0  0
   -4.2135   -7.9218    0.0000 C   0  0  0  0  0  0  0  0  0  0  0  0
   -3.4635   -6.6227    0.0000 C   0  0  0  0  0  0  0  0  0  0  0  0
   -4.8980   -6.1842    0.0000 O   0  0  0  0  0  0  0  0  0  0  0  0
   -2.2500   -7.5044    0.0000 C   0  0  0  0  0  0  0  0  0  0  0  0
   -1.0365   -6.6227    0.0000 C   0  0  0  0  0  0  0  0  0  0  0  0
   -1.5000   -5.1962    0.0000 C   0  0  0  0  0  0  0  0  0  0  0  0
   -0.7500   -3.8971    0.0000 C   0  0  0  0  0  0  0  0  0  0  0  0
    0.7500   -3.8971    0.0000 C   0  0  0  0  0  0  0  0  0  0  0  0
    1.5000   -2.5981    0.0000 C   0  0  0  0  0  0  0  0  0  0  0  0
    0.7500   -1.2990    0.0000 C   0  0  0  0  0  0  0  0  0  0  0  0
    1.5000    0.0000    0.0000 C   0  0  0  0  0  0  0  0  0  0  0  0
    0.7500    1.2990    0.0000 C   0  0  0  0  0  0  0  0  0  0  0  0
    1.5000    2.5981    0.0000 O   0  0  0  0  0  0  0  0  0  0  0  0
   -0.7500    1.2990    0.0000 C   0  0  0  0  0  0  0  0  0  0  0  0
   -1.5000    0.0000    0.0000 C   0  0  0  0  0  0  0  0  0  0  0  0
   -0.7500   -1.2990    0.0000 C   0  0  0  0  0  0  0  0  0  0  0  0
   -1.5000   -2.5981    0.0000 C   0  0  0  0  0  0  0  0  0  0  0  0
   -3.0000   -2.5981    0.0000 C   0  0  0  0  0  0  0  0  0  0  0  0
   -3.7500   -3.8971    0.0000 C   0  0  0  0  0  0  0  0  0  0  0  0
   -3.0000   -5.1962    0.0000 C   0  0  0  0  0  0  0  0  0  0  0  0
   -4.4998   -5.1699    0.0000 C   0  0  0  0  0  0  0  0  0  0  0  0
  1  2  3  0
  2  3  1  0
  3  4  1  6
  3  5  1  0
  5  6  1  0
  7  6  1  6
  7  8  1  0
  8  9  1  1
  9 10  1  0
 10 11  1  0
 11 12  2  0
 12 13  1  0
 13 14  1  0
 13 15  2  0
 15 16  1  0
 16 17  2  0
 17 18  1  0
 18 19  1  6
 19 20  1  0
 20 21  1  0
 21 22  1  6
 21  3  1  0
 21  7  1  0
 18  8  1  0
 17 11  1  0
M  END
>  <assay_description>  (317) 
Inhibition of human BSEP overexpressed in Sf9 cell membrane vesicles assessed as uptake of [3H]-taurocholate in presence of ATP measured after 15 to 20 mins by membrane vesicle transport assay

>  <molecule_pref_name>  (317) 
ETHINYL ESTRADIOL

>  <canonical_smiles>  (317) 
C#C[C@]1(O)CC[C@H]2[C@@H]3CCc4cc(O)ccc4[C@H]3CC[C@@]21C

>  <pchembl_value>  (317) 
4.85

>  <standard_type>  (317) 
IC50

>  <standard_relation>  (317) 
=

>  <standard_value>  (317) 
14000.0

>  <standard_units>  (317) 
nM

>  <target_pref_name>  (317) 
Bile salt export pump

>  <target_organism>  (317) 
Homo sapiens

$$$$
CHEMBL4097197
     RDKit          2D

 45 48  0  0  0  0  0  0  0  0999 V2000
    8.1939    4.1994    0.0000 C   0  0  0  0  0  0  0  0  0  0  0  0
    6.7267    3.8876    0.0000 S   0  0  0  0  0  0  0  0  0  0  0  0
    6.4148    5.3548    0.0000 O   0  0  0  0  0  0  0  0  0  0  0  0
    7.0386    2.4204    0.0000 O   0  0  0  0  0  0  0  0  0  0  0  0
    5.2595    3.5757    0.0000 N   0  0  0  0  0  0  0  0  0  0  0  0
    4.7960    2.1491    0.0000 C   0  0  0  0  0  0  0  0  0  0  0  0
    3.3287    1.8373    0.0000 C   0  0  0  0  0  0  0  0  0  0  0  0
    2.3250    2.9520    0.0000 N   0  0  0  0  0  0  0  0  0  0  0  0
    0.8578    2.6401    0.0000 C   0  0  0  0  0  0  0  0  0  0  0  0
    0.3943    1.2135    0.0000 C   0  0  0  0  0  0  0  0  0  0  0  0
    1.2760    0.0000    0.0000 C   0  0  0  0  0  0  0  0  0  0  0  0
    0.3943   -1.2135    0.0000 C   0  0  0  0  0  0  0  0  0  0  0  0
    0.7062   -2.6807    0.0000 N   0  0  0  0  0  0  0  0  0  0  0  0
   -0.4086   -3.6844    0.0000 C   0  0  0  0  0  0  0  0  0  0  0  0
   -0.0967   -5.1517    0.0000 C   0  0  0  0  0  0  0  0  0  0  0  0
   -1.2114   -6.1554    0.0000 C   0  0  0  0  0  0  0  0  0  0  0  0
   -0.8995   -7.6226    0.0000 C   0  0  0  0  0  0  0  0  0  0  0  0
    0.5271   -8.0861    0.0000 C   0  0  0  0  0  0  0  0  0  0  0  0
    1.6418   -7.0824    0.0000 C   0  0  0  0  0  0  0  0  0  0  0  0
    3.1336   -7.2392    0.0000 N   0  0  0  0  0  0  0  0  0  0  0  0
    3.7437   -5.8689    0.0000 N   0  0  0  0  0  0  0  0  0  0  0  0
    2.6289   -4.8652    0.0000 C   0  0  0  0  0  0  0  0  0  0  0  0
    1.3299   -5.6152    0.0000 C   0  0  0  0  0  0  0  0  0  0  0  0
   -1.8351   -3.2209    0.0000 N   0  0  0  0  0  0  0  0  0  0  0  0
   -2.1470   -1.7537    0.0000 C   0  0  0  0  0  0  0  0  0  0  0  0
   -3.5736   -1.2902    0.0000 N   0  0  0  0  0  0  0  0  0  0  0  0
   -3.8855    0.1771    0.0000 C   0  0  0  0  0  0  0  0  0  0  0  0
   -5.3120    0.6406    0.0000 C   0  0  0  0  0  0  0  0  0  0  0  0
   -6.4268   -0.3631    0.0000 O   0  0  0  0  0  0  0  0  0  0  0  0
   -6.1149   -1.8303    0.0000 C   0  0  0  0  0  0  0  0  0  0  0  0
   -4.6883   -2.2939    0.0000 C   0  0  0  0  0  0  0  0  0  0  0  0
   -1.0323   -0.7500    0.0000 C   0  0  0  0  0  0  0  0  0  0  0  0
   -1.0323    0.7500    0.0000 S   0  0  0  0  0  0  0  0  0  0  0  0
    2.7886    4.3786    0.0000 C   0  0  0  0  0  0  0  0  0  0  0  0
    4.2558    4.6904    0.0000 C   0  0  0  0  0  0  0  0  0  0  0  0
    0.0000    6.9038    0.0000 C   0  0  0  0  0  0  0  0  0  0  0  0
    1.2990    7.6538    0.0000 S   0  0  0  0  0  0  0  0  0  0  0  0
    2.0490    6.3548    0.0000 O   0  0  0  0  0  0  0  0  0  0  0  0
    0.5490    8.9529    0.0000 O   0  0  0  0  0  0  0  0  0  0  0  0
    2.5981    8.4038    0.0000 O   0  0  0  0  0  0  0  0  0  0  0  0
    9.1939    0.0000    0.0000 C   0  0  0  0  0  0  0  0  0  0  0  0
   10.4930    0.7500    0.0000 S   0  0  0  0  0  0  0  0  0  0  0  0
   11.2430   -0.5490    0.0000 O   0  0  0  0  0  0  0  0  0  0  0  0
    9.7430    2.0490    0.0000 O   0  0  0  0  0  0  0  0  0  0  0  0
   11.7920    1.5000    0.0000 O   0  0  0  0  0  0  0  0  0  0  0  0
  1  2  1  0
  2  3  2  0
  2  4  2  0
  2  5  1  0
  5  6  1  0
  6  7  1  0
  7  8  1  0
  8  9  1  0
  9 10  1  0
 10 11  2  0
 11 12  1  0
 12 13  2  0
 13 14  1  0
 14 15  1  0
 15 16  2  0
 16 17  1  0
 17 18  2  0
 18 19  1  0
 19 20  1  0
 20 21  1  0
 21 22  2  0
 22 23  1  0
 14 24  2  0
 24 25  1  0
 25 26  1  0
 26 27  1  0
 27 28  1  0
 28 29  1  0
 29 30  1  0
 30 31  1  0
 25 32  2  0
 32 33  1  0
  8 34  1  0
 34 35  1  0
 36 37  1  0
 37 38  2  0
 37 39  2  0
 37 40  1  0
 41 42  1  0
 42 43  2  0
 42 44  2  0
 42 45  1  0
 35  5  1  0
 33 10  1  0
 32 12  1  0
 23 15  1  0
 31 26  1  0
 23 19  2  0
M  END
>  <assay_description>  (318) 
Inhibition of human BSEP overexpressed in Sf9 cell membrane vesicles assessed as uptake of [3H]-taurocholate in presence of ATP measured after 15 to 20 mins by membrane vesicle transport assay

>  <molecule_pref_name>  (318) 
None

>  <canonical_smiles>  (318) 
CS(=O)(=O)N1CCN(Cc2cc3nc(-c4cccc5[nH]ncc45)nc(N4CCOCC4)c3s2)CC1.CS(=O)(=O)O.CS(=O)(=O)O

>  <pchembl_value>  (318) 
4.82

>  <standard_type>  (318) 
IC50

>  <standard_relation>  (318) 
=

>  <standard_value>  (318) 
15200.0

>  <standard_units>  (318) 
nM

>  <target_pref_name>  (318) 
Bile salt export pump

>  <target_organism>  (318) 
Homo sapiens

$$$$
CHEMBL43064
     RDKit          2D

 28 31  0  0  0  0  0  0  0  0999 V2000
    0.7500   -3.8971    0.0000 C   0  0  0  0  0  0  0  0  0  0  0  0
    1.5000   -2.5981    0.0000 C   0  0  0  0  0  0  0  0  0  0  0  0
    0.7500   -1.2990    0.0000 C   0  0  0  0  0  0  0  0  0  0  0  0
    1.5000    0.0000    0.0000 C   0  0  0  0  0  0  0  0  0  0  0  0
    0.7500    1.2990    0.0000 C   0  0  0  0  0  0  0  0  0  0  0  0
   -0.7500    1.2990    0.0000 C   0  0  0  0  0  0  0  0  0  0  0  0
   -1.5000    0.0000    0.0000 C   0  0  0  0  0  0  0  0  0  0  0  0
   -0.7500   -1.2990    0.0000 C   0  0  0  0  0  0  0  0  0  0  0  0
    1.5000   -5.1962    0.0000 C   0  0  0  0  0  0  0  0  0  0  0  0
    0.7500   -6.4952    0.0000 N   0  0  0  0  0  0  0  0  0  0  0  0
   -0.7500   -6.4952    0.0000 C   0  0  0  0  0  0  0  0  0  0  0  0
   -1.5000   -7.7942    0.0000 C   0  0  0  0  0  0  0  0  0  0  0  0
   -0.7500   -9.0933    0.0000 N   0  0  0  0  0  0  0  0  0  0  0  0
   -1.5000  -10.3923    0.0000 C   0  0  0  0  0  0  0  0  0  0  0  0
   -3.0000  -10.3923    0.0000 C   0  0  0  0  0  0  0  0  0  0  0  0
   -3.7500   -9.0933    0.0000 C   0  0  0  0  0  0  0  0  0  0  0  0
   -5.2500   -9.0933    0.0000 C   0  0  0  0  0  0  0  0  0  0  0  0
   -6.0000  -10.3923    0.0000 C   0  0  0  0  0  0  0  0  0  0  0  0
   -5.2500  -11.6913    0.0000 C   0  0  0  0  0  0  0  0  0  0  0  0
   -3.7500  -11.6913    0.0000 C   0  0  0  0  0  0  0  0  0  0  0  0
   -0.7500  -11.6913    0.0000 C   0  0  0  0  0  0  0  0  0  0  0  0
   -1.5000  -12.9904    0.0000 C   0  0  0  0  0  0  0  0  0  0  0  0
   -0.7500  -14.2894    0.0000 C   0  0  0  0  0  0  0  0  0  0  0  0
    0.7500  -14.2894    0.0000 C   0  0  0  0  0  0  0  0  0  0  0  0
    1.5000  -12.9904    0.0000 C   0  0  0  0  0  0  0  0  0  0  0  0
    0.7500  -11.6913    0.0000 C   0  0  0  0  0  0  0  0  0  0  0  0
    0.7500   -9.0933    0.0000 C   0  0  0  0  0  0  0  0  0  0  0  0
    1.5000   -7.7942    0.0000 C   0  0  0  0  0  0  0  0  0  0  0  0
  1  2  2  0
  2  3  1  0
  3  4  2  0
  4  5  1  0
  5  6  2  0
  6  7  1  0
  7  8  2  0
  1  9  1  0
  9 10  1  0
 10 11  1  0
 11 12  1  0
 12 13  1  0
 13 14  1  0
 14 15  1  0
 15 16  2  0
 16 17  1  0
 17 18  2  0
 18 19  1  0
 19 20  2  0
 14 21  1  0
 21 22  2  0
 22 23  1  0
 23 24  2  0
 24 25  1  0
 25 26  2  0
 13 27  1  0
 27 28  1  0
  8  3  1  0
 28 10  1  0
 20 15  1  0
 26 21  1  0
M  END
>  <assay_description>  (319) 
Inhibition of human BSEP overexpressed in Sf9 cell membrane vesicles assessed as uptake of [3H]-taurocholate in presence of ATP measured after 15 to 20 mins by membrane vesicle transport assay

>  <molecule_pref_name>  (319) 
CINNARIZINE

>  <canonical_smiles>  (319) 
C(=C/c1ccccc1)\CN1CCN(C(c2ccccc2)c2ccccc2)CC1

>  <pchembl_value>  (319) 
4.80

>  <standard_type>  (319) 
IC50

>  <standard_relation>  (319) 
=

>  <standard_value>  (319) 
15700.0

>  <standard_units>  (319) 
nM

>  <target_pref_name>  (319) 
Bile salt export pump

>  <target_organism>  (319) 
Homo sapiens

$$$$
CHEMBL388978
     RDKit          2D

 35 42  0  0  0  0  0  0  0  0999 V2000
    7.0384   -5.9220    0.0000 C   0  0  0  0  0  0  0  0  0  0  0  0
    6.3474   -4.5907    0.0000 N   0  0  0  0  0  0  0  0  0  0  0  0
    4.8489   -4.5234    0.0000 C   0  0  0  0  0  0  0  0  0  0  0  0
    4.0414   -5.7874    0.0000 C   0  0  0  0  0  0  0  0  0  0  0  0
    2.5382   -5.8249    0.0000 C   0  0  0  0  0  0  0  0  0  0  0  0
    3.2490   -4.5040    0.0000 O   0  0  0  0  0  0  0  0  0  0  0  0
    2.6595   -3.1247    0.0000 C   0  0  0  0  0  0  0  0  0  0  0  0
    3.6464   -1.9951    0.0000 C   0  0  0  0  0  0  0  0  0  0  0  0
    4.1580   -3.1920    0.0000 C   0  0  0  0  0  0  0  0  0  0  0  0
    4.9655   -1.9279    0.0000 O   0  0  0  0  0  0  0  0  0  0  0  0
    6.4640   -1.9952    0.0000 C   0  0  0  0  0  0  0  0  0  0  0  0
    1.2135   -2.7256    0.0000 N   0  0  0  0  0  0  0  0  0  0  0  0
    0.7500   -1.2990    0.0000 C   0  0  0  0  0  0  0  0  0  0  0  0
    1.5000    0.0000    0.0000 C   0  0  0  0  0  0  0  0  0  0  0  0
    0.7500    1.2990    0.0000 C   0  0  0  0  0  0  0  0  0  0  0  0
   -0.7500    1.2990    0.0000 C   0  0  0  0  0  0  0  0  0  0  0  0
   -1.5000    0.0000    0.0000 C   0  0  0  0  0  0  0  0  0  0  0  0
   -0.7500   -1.2990    0.0000 C   0  0  0  0  0  0  0  0  0  0  0  0
   -1.2135   -2.7256    0.0000 C   0  0  0  0  0  0  0  0  0  0  0  0
   -2.5518   -3.5691    0.0000 C   0  0  0  0  0  0  0  0  0  0  0  0
   -2.6191   -5.0676    0.0000 C   0  0  0  0  0  0  0  0  0  0  0  0
   -1.3550   -5.8751    0.0000 C   0  0  0  0  0  0  0  0  0  0  0  0
   -1.0212   -7.3375    0.0000 C   0  0  0  0  0  0  0  0  0  0  0  0
   -1.8846   -8.5641    0.0000 C   0  0  0  0  0  0  0  0  0  0  0  0
   -1.2541   -9.9251    0.0000 C   0  0  0  0  0  0  0  0  0  0  0  0
    0.2399  -10.0596    0.0000 C   0  0  0  0  0  0  0  0  0  0  0  0
    1.1033   -8.8330    0.0000 C   0  0  0  0  0  0  0  0  0  0  0  0
    0.4728   -7.4720    0.0000 C   0  0  0  0  0  0  0  0  0  0  0  0
    1.0623   -6.0927    0.0000 N   0  0  0  0  0  0  0  0  0  0  0  0
   -0.0673   -5.1058    0.0000 C   0  0  0  0  0  0  0  0  0  0  0  0
   -0.0000   -3.6073    0.0000 C   0  0  0  0  0  0  0  0  0  0  0  0
   -4.0650   -5.4667    0.0000 C   0  0  0  0  0  0  0  0  0  0  0  0
   -4.5921   -6.8710    0.0000 O   0  0  0  0  0  0  0  0  0  0  0  0
   -4.8913   -4.2148    0.0000 N   0  0  0  0  0  0  0  0  0  0  0  0
   -3.9561   -3.0421    0.0000 C   0  0  0  0  0  0  0  0  0  0  0  0
  1  2  1  0
  3  2  1  6
  3  4  1  0
  5  4  1  6
  5  6  1  0
  6  7  1  0
  7  8  1  1
  7  9  1  0
  9 10  1  6
 10 11  1  0
  7 12  1  0
 12 13  1  0
 13 14  2  0
 14 15  1  0
 15 16  2  0
 16 17  1  0
 17 18  2  0
 18 19  1  0
 19 20  2  0
 20 21  1  0
 21 22  2  0
 22 23  1  0
 23 24  2  0
 24 25  1  0
 25 26  2  0
 26 27  1  0
 27 28  2  0
 28 29  1  0
 29 30  1  0
 30 31  2  0
 21 32  1  0
 32 33  2  0
 32 34  1  0
 34 35  1  0
  9  3  1  0
 31 12  1  0
 29  5  1  0
 18 13  1  0
 31 19  1  0
 35 20  1  0
 30 22  1  0
 28 23  1  0
M  END
>  <assay_description>  (320) 
Inhibition of human BSEP overexpressed in Sf9 cell membrane vesicles assessed as uptake of [3H]-taurocholate in presence of ATP measured after 15 to 20 mins by membrane vesicle transport assay

>  <molecule_pref_name>  (320) 
STAUROSPORINE

>  <canonical_smiles>  (320) 
CN[C@@H]1C[C@H]2O[C@@](C)([C@@H]1OC)n1c3ccccc3c3c4c(c5c6ccccc6n2c5c31)C(=O)NC4

>  <pchembl_value>  (320) 
4.73

>  <standard_type>  (320) 
IC50

>  <standard_relation>  (320) 
=

>  <standard_value>  (320) 
18700.0

>  <standard_units>  (320) 
nM

>  <target_pref_name>  (320) 
Bile salt export pump

>  <target_organism>  (320) 
Homo sapiens

$$$$
CHEMBL180022
     RDKit          2D

 40 43  0  0  0  0  0  0  0  0999 V2000
    5.2500   -1.2990    0.0000 C   0  0  0  0  0  0  0  0  0  0  0  0
    3.7500   -1.2990    0.0000 C   0  0  0  0  0  0  0  0  0  0  0  0
    3.0000    0.0000    0.0000 O   0  0  0  0  0  0  0  0  0  0  0  0
    1.5000    0.0000    0.0000 C   0  0  0  0  0  0  0  0  0  0  0  0
    0.7500   -1.2990    0.0000 C   0  0  0  0  0  0  0  0  0  0  0  0
   -0.7500   -1.2990    0.0000 C   0  0  0  0  0  0  0  0  0  0  0  0
   -1.5000   -2.5981    0.0000 N   0  0  0  0  0  0  0  0  0  0  0  0
   -3.0000   -2.5981    0.0000 C   0  0  0  0  0  0  0  0  0  0  0  0
   -3.7500   -1.2990    0.0000 C   0  0  0  0  0  0  0  0  0  0  0  0
   -5.2500   -1.2990    0.0000 C   0  0  0  0  0  0  0  0  0  0  0  0
   -6.7500   -1.2990    0.0000 N   0  0  0  0  0  0  0  0  0  0  0  0
   -3.0000    0.0000    0.0000 C   0  0  0  0  0  0  0  0  0  0  0  0
   -3.7500    1.2990    0.0000 N   0  0  0  0  0  0  0  0  0  0  0  0
   -3.0000    2.5981    0.0000 C   0  0  0  0  0  0  0  0  0  0  0  0
   -1.5000    2.5981    0.0000 C   0  0  0  0  0  0  0  0  0  0  0  0
   -0.7500    3.8971    0.0000 C   0  0  0  0  0  0  0  0  0  0  0  0
   -1.5000    5.1962    0.0000 C   0  0  0  0  0  0  0  0  0  0  0  0
   -0.7500    6.4952    0.0000 O   0  0  0  0  0  0  0  0  0  0  0  0
    0.7500    6.4952    0.0000 C   0  0  0  0  0  0  0  0  0  0  0  0
    1.5000    7.7942    0.0000 C   0  0  0  0  0  0  0  0  0  0  0  0
    3.0000    7.7942    0.0000 C   0  0  0  0  0  0  0  0  0  0  0  0
    3.7500    9.0933    0.0000 C   0  0  0  0  0  0  0  0  0  0  0  0
    3.0000   10.3923    0.0000 C   0  0  0  0  0  0  0  0  0  0  0  0
    1.5000   10.3923    0.0000 C   0  0  0  0  0  0  0  0  0  0  0  0
    0.7500    9.0933    0.0000 N   0  0  0  0  0  0  0  0  0  0  0  0
   -3.0000    5.1962    0.0000 C   0  0  0  0  0  0  0  0  0  0  0  0
   -3.7500    6.4952    0.0000 Cl  0  0  0  0  0  0  0  0  0  0  0  0
   -3.7500    3.8971    0.0000 C   0  0  0  0  0  0  0  0  0  0  0  0
   -1.5000    0.0000    0.0000 C   0  0  0  0  0  0  0  0  0  0  0  0
   -0.7500    1.2990    0.0000 C   0  0  0  0  0  0  0  0  0  0  0  0
    0.7500    1.2990    0.0000 C   0  0  0  0  0  0  0  0  0  0  0  0
    1.5000    2.5981    0.0000 N   0  0  0  0  0  0  0  0  0  0  0  0
    3.0000    2.5981    0.0000 C   0  0  0  0  0  0  0  0  0  0  0  0
    3.7500    1.2990    0.0000 O   0  0  0  0  0  0  0  0  0  0  0  0
    3.7500    3.8971    0.0000 C   0  0  0  0  0  0  0  0  0  0  0  0
    5.2500    3.8971    0.0000 C   0  0  0  0  0  0  0  0  0  0  0  0
    6.0000    5.1962    0.0000 C   0  0  0  0  0  0  0  0  0  0  0  0
    7.5000    5.1962    0.0000 N   0  0  0  0  0  0  0  0  0  0  0  0
    8.2500    6.4952    0.0000 C   0  0  0  0  0  0  0  0  0  0  0  0
    8.2500    3.8971    0.0000 C   0  0  0  0  0  0  0  0  0  0  0  0
  1  2  1  0
  2  3  1  0
  3  4  1  0
  4  5  2  0
  5  6  1  0
  6  7  2  0
  7  8  1  0
  8  9  2  0
  9 10  1  0
 10 11  3  0
  9 12  1  0
 12 13  1  0
 13 14  1  0
 14 15  2  0
 15 16  1  0
 16 17  2  0
 17 18  1  0
 18 19  1  0
 19 20  1  0
 20 21  2  0
 21 22  1  0
 22 23  2  0
 23 24  1  0
 24 25  2  0
 17 26  1  0
 26 27  1  0
 26 28  2  0
 12 29  2  0
 29 30  1  0
 30 31  2  0
 31 32  1  0
 32 33  1  0
 33 34  2  0
 33 35  1  0
 35 36  2  0
 36 37  1  0
 37 38  1  0
 38 39  1  0
 38 40  1  0
 31  4  1  0
 29  6  1  0
 28 14  1  0
 25 20  1  0
M  END
>  <assay_description>  (321) 
Inhibition of human BSEP overexpressed in Sf9 cell membrane vesicles assessed as uptake of [3H]-taurocholate in presence of ATP measured after 15 to 20 mins by membrane vesicle transport assay

>  <molecule_pref_name>  (321) 
NERATINIB

>  <canonical_smiles>  (321) 
CCOc1cc2ncc(C#N)c(Nc3ccc(OCc4ccccn4)c(Cl)c3)c2cc1NC(=O)/C=C/CN(C)C

>  <pchembl_value>  (321) 
4.60

>  <standard_type>  (321) 
IC50

>  <standard_relation>  (321) 
=

>  <standard_value>  (321) 
25000.0

>  <standard_units>  (321) 
nM

>  <target_pref_name>  (321) 
Bile salt export pump

>  <target_organism>  (321) 
Homo sapiens

$$$$
CHEMBL54440
     RDKit          2D

 28 30  0  0  0  0  0  0  0  0999 V2000
    7.5000   -0.0000    0.0000 C   0  0  0  0  0  0  0  0  0  0  0  0
    6.0000    0.0000    0.0000 C   0  0  0  0  0  0  0  0  0  0  0  0
    5.2500   -1.2990    0.0000 C   0  0  0  0  0  0  0  0  0  0  0  0
    6.0000   -2.5981    0.0000 C   0  0  0  0  0  0  0  0  0  0  0  0
    3.7500   -1.2990    0.0000 C   0  0  0  0  0  0  0  0  0  0  0  0
    3.0000   -2.5981    0.0000 O   0  0  0  0  0  0  0  0  0  0  0  0
    3.0000    0.0000    0.0000 O   0  0  0  0  0  0  0  0  0  0  0  0
    1.5000    0.0000    0.0000 C   0  0  0  0  0  0  0  0  0  0  0  0
    0.7500   -1.2990    0.0000 C   0  0  0  0  0  0  0  0  0  0  0  0
   -0.7500   -1.2990    0.0000 C   0  0  0  0  0  0  0  0  0  0  0  0
   -1.5000    0.0000    0.0000 C   0  0  0  0  0  0  0  0  0  0  0  0
   -0.7500    1.2990    0.0000 C   0  0  0  0  0  0  0  0  0  0  0  0
   -1.5000    2.5981    0.0000 C   0  0  0  0  0  0  0  0  0  0  0  0
   -0.7500    3.8971    0.0000 C   0  0  0  0  0  0  0  0  0  0  0  0
    0.7500    3.8971    0.0000 C   0  0  0  0  0  0  0  0  0  0  0  0
    1.5000    5.1962    0.0000 C   0  0  0  0  0  0  0  0  0  0  0  0
    1.5000    2.5981    0.0000 C   0  0  0  0  0  0  0  0  0  0  0  0
    3.0000    2.5981    0.0000 C   0  0  0  0  0  0  0  0  0  0  0  0
    3.7500    3.8971    0.0000 C   0  0  0  0  0  0  0  0  0  0  0  0
    5.2500    3.8971    0.0000 C   0  0  0  0  0  0  0  0  0  0  0  0
    6.0000    2.5981    0.0000 C   0  0  0  0  0  0  0  0  0  0  0  0
    7.5000    2.5981    0.0000 C   0  0  0  0  0  0  0  0  0  0  0  0
    8.2500    1.2990    0.0000 O   0  0  0  0  0  0  0  0  0  0  0  0
    8.2500    3.8971    0.0000 C   0  0  0  0  0  0  0  0  0  0  0  0
    7.5000    5.1962    0.0000 C   0  0  0  0  0  0  0  0  0  0  0  0
    8.2500    6.4952    0.0000 O   0  0  0  0  0  0  0  0  0  0  0  0
    6.0000    5.1962    0.0000 O   0  0  0  0  0  0  0  0  0  0  0  0
    0.7500    1.2990    0.0000 C   0  0  0  0  0  0  0  0  0  0  0  0
  1  2  1  0
  2  3  1  0
  3  4  1  6
  3  5  1  0
  5  6  2  0
  5  7  1  0
  8  7  1  1
  8  9  1  0
  9 10  1  0
 10 11  1  0
 11 12  2  0
 12 13  1  0
 13 14  2  0
 14 15  1  0
 15 16  1  6
 15 17  1  0
 17 18  1  6
 18 19  1  0
 20 19  1  1
 20 21  1  0
 21 22  1  0
 22 23  1  6
 22 24  1  0
 24 25  1  0
 25 26  2  0
 25 27  1  0
 17 28  1  0
 28  8  1  0
 28 12  1  1
 27 20  1  0
M  END
>  <assay_description>  (322) 
Inhibition of human BSEP overexpressed in Sf9 cell membrane vesicles assessed as uptake of [3H]-taurocholate in presence of ATP measured after 15 to 20 mins by membrane vesicle transport assay

>  <molecule_pref_name>  (322) 
MEVASTATIN

>  <canonical_smiles>  (322) 
CC[C@H](C)C(=O)O[C@H]1CCC=C2C=C[C@H](C)[C@H](CC[C@@H]3C[C@@H](O)CC(=O)O3)[C@H]21

>  <pchembl_value>  (322) 
4.57

>  <standard_type>  (322) 
IC50

>  <standard_relation>  (322) 
=

>  <standard_value>  (322) 
27000.0

>  <standard_units>  (322) 
nM

>  <target_pref_name>  (322) 
Bile salt export pump

>  <target_organism>  (322) 
Homo sapiens

$$$$
CHEMBL7002
     RDKit          2D

 23 25  0  0  0  0  0  0  0  0999 V2000
    2.6491   -4.2320    0.0000 C   0  0  0  0  0  0  0  0  0  0  0  0
    1.5000   -5.1962    0.0000 C   0  0  0  0  0  0  0  0  0  0  0  0
    0.7500   -3.8971    0.0000 C   0  0  0  0  0  0  0  0  0  0  0  0
    1.5000   -2.5981    0.0000 O   0  0  0  0  0  0  0  0  0  0  0  0
    0.7500   -1.2990    0.0000 C   0  0  0  0  0  0  0  0  0  0  0  0
    1.5000    0.0000    0.0000 C   0  0  0  0  0  0  0  0  0  0  0  0
    0.7500    1.2990    0.0000 C   0  0  0  0  0  0  0  0  0  0  0  0
   -0.7500    1.2990    0.0000 C   0  0  0  0  0  0  0  0  0  0  0  0
   -1.5000    2.5981    0.0000 C   0  0  0  0  0  0  0  0  0  0  0  0
   -0.7500    3.8971    0.0000 C   0  0  0  0  0  0  0  0  0  0  0  0
   -1.3601    5.2674    0.0000 S   0  0  0  0  0  0  0  0  0  0  0  0
   -0.2454    6.2711    0.0000 C   0  0  0  0  0  0  0  0  0  0  0  0
   -0.4022    7.7629    0.0000 O   0  0  0  0  0  0  0  0  0  0  0  0
    1.0537    5.5211    0.0000 N   0  0  0  0  0  0  0  0  0  0  0  0
    0.7418    4.0539    0.0000 C   0  0  0  0  0  0  0  0  0  0  0  0
    1.7455    2.9392    0.0000 O   0  0  0  0  0  0  0  0  0  0  0  0
   -1.5000    0.0000    0.0000 C   0  0  0  0  0  0  0  0  0  0  0  0
   -0.7500   -1.2990    0.0000 C   0  0  0  0  0  0  0  0  0  0  0  0
    0.0905   -5.7092    0.0000 C   0  0  0  0  0  0  0  0  0  0  0  0
   -0.1700   -7.1864    0.0000 C   0  0  0  0  0  0  0  0  0  0  0  0
    0.9791   -8.1506    0.0000 C   0  0  0  0  0  0  0  0  0  0  0  0
    2.3886   -7.6375    0.0000 C   0  0  0  0  0  0  0  0  0  0  0  0
    2.6491   -6.1603    0.0000 C   0  0  0  0  0  0  0  0  0  0  0  0
  1  2  1  0
  2  3  1  0
  3  4  1  0
  4  5  1  0
  5  6  2  0
  6  7  1  0
  7  8  2  0
  8  9  1  0
  9 10  1  0
 10 11  1  0
 11 12  1  0
 12 13  2  0
 12 14  1  0
 14 15  1  0
 15 16  2  0
  8 17  1  0
 17 18  2  0
  2 19  1  0
 19 20  1  0
 20 21  1  0
 21 22  1  0
 22 23  1  0
 23  2  1  0
 18  5  1  0
 15 10  1  0
M  END
>  <assay_description>  (323) 
Inhibition of human BSEP overexpressed in Sf9 cell membrane vesicles assessed as uptake of [3H]-taurocholate in presence of ATP measured after 15 to 20 mins by membrane vesicle transport assay

>  <molecule_pref_name>  (323) 
CIGLITAZONE

>  <canonical_smiles>  (323) 
CC1(COc2ccc(CC3SC(=O)NC3=O)cc2)CCCCC1

>  <pchembl_value>  (323) 
4.42

>  <standard_type>  (323) 
IC50

>  <standard_relation>  (323) 
=

>  <standard_value>  (323) 
37800.0

>  <standard_units>  (323) 
nM

>  <target_pref_name>  (323) 
Bile salt export pump

>  <target_organism>  (323) 
Homo sapiens

$$$$
CHEMBL1617
     RDKit          2D

 57 62  0  0  0  0  0  0  0  0999 V2000
   -0.4387  -15.0730    0.0000 C   0  0  0  0  0  0  0  0  0  0  0  0
   -1.8973  -14.7229    0.0000 O   0  0  0  0  0  0  0  0  0  0  0  0
   -2.3233  -13.2846    0.0000 C   0  0  0  0  0  0  0  0  0  0  0  0
   -0.9530  -12.6745    0.0000 C   0  0  0  0  0  0  0  0  0  0  0  0
    0.2127  -11.7305    0.0000 C   0  0  0  0  0  0  0  0  0  0  0  0
    1.0944  -10.5170    0.0000 O   0  0  0  0  0  0  0  0  0  0  0  0
    1.6319   -9.1167    0.0000 C   0  0  0  0  0  0  0  0  0  0  0  0
    3.0905   -9.4668    0.0000 C   0  0  0  0  0  0  0  0  0  0  0  0
    2.9644   -8.4277    0.0000 O   0  0  0  0  0  0  0  0  0  0  0  0
    3.0459   -6.3001    0.0000 C   0  0  0  0  0  0  0  0  0  0  0  0
    3.9275   -5.0866    0.0000 C   0  0  0  0  0  0  0  0  0  0  0  0
    5.4193   -5.2434    0.0000 C   0  0  0  0  0  0  0  0  0  0  0  0
    3.3174   -3.7163    0.0000 C   0  0  0  0  0  0  0  0  0  0  0  0
    4.1991   -2.5028    0.0000 O   0  0  0  0  0  0  0  0  0  0  0  0
    1.8257   -3.5595    0.0000 C   0  0  0  0  0  0  0  0  0  0  0  0
   -0.2707   -2.8312    0.0000 C   0  0  0  0  0  0  0  0  0  0  0  0
   -2.0368   -4.7212    0.0000 O   0  0  0  0  0  0  0  0  0  0  0  0
   -2.6139   -2.1881    0.0000 C   0  0  0  0  0  0  0  0  0  0  0  0
   -1.2135   -2.7256    0.0000 C   0  0  0  0  0  0  0  0  0  0  0  0
   -0.0000   -3.6073    0.0000 C   0  0  0  0  0  0  0  0  0  0  0  0
    1.2135   -2.7256    0.0000 N   0  0  0  0  0  0  0  0  0  0  0  0
    0.7500   -1.2990    0.0000 C   0  0  0  0  0  0  0  0  0  0  0  0
    1.5000    0.0000    0.0000 C   0  0  0  0  0  0  0  0  0  0  0  0
    0.7500    1.2990    0.0000 C   0  0  0  0  0  0  0  0  0  0  0  0
    1.5000    2.5981    0.0000 C   0  0  0  0  0  0  0  0  0  0  0  0
   -0.7500    1.2990    0.0000 C   0  0  0  0  0  0  0  0  0  0  0  0
   -1.5000    0.0000    0.0000 C   0  0  0  0  0  0  0  0  0  0  0  0
   -0.7500   -1.2990    0.0000 N   0  0  0  0  0  0  0  0  0  0  0  0
    0.9440   -4.7730    0.0000 C   0  0  0  0  0  0  0  0  0  0  0  0
    1.5541   -6.1433    0.0000 C   0  0  0  0  0  0  0  0  0  0  0  0
    1.7887   -7.6249    0.0000 C   0  0  0  0  0  0  0  0  0  0  0  0
    3.2342   -7.2239    0.0000 O   0  0  0  0  0  0  0  0  0  0  0  0
   -4.1057   -2.0313    0.0000 N   0  0  0  0  0  0  0  0  0  0  0  0
   -5.5872   -2.2659    0.0000 C   0  0  0  0  0  0  0  0  0  0  0  0
   -6.0132   -0.8277    0.0000 O   0  0  0  0  0  0  0  0  0  0  0  0
   -6.9575   -2.8760    0.0000 C   0  0  0  0  0  0  0  0  0  0  0  0
   -7.7413   -1.5971    0.0000 C   0  0  0  0  0  0  0  0  0  0  0  0
   -8.1232   -3.8200    0.0000 C   0  0  0  0  0  0  0  0  0  0  0  0
   -9.0049   -5.0335    0.0000 C   0  0  0  0  0  0  0  0  0  0  0  0
   -9.5425   -6.4339    0.0000 C   0  0  0  0  0  0  0  0  0  0  0  0
   -9.6993   -7.9257    0.0000 C   0  0  0  0  0  0  0  0  0  0  0  0
  -11.1988   -7.9650    0.0000 C   0  0  0  0  0  0  0  0  0  0  0  0
   -9.4646   -9.4072    0.0000 C   0  0  0  0  0  0  0  0  0  0  0  0
  -10.9028   -9.8333    0.0000 O   0  0  0  0  0  0  0  0  0  0  0  0
   -8.8545  -10.7775    0.0000 C   0  0  0  0  0  0  0  0  0  0  0  0
  -10.1335  -11.5613    0.0000 C   0  0  0  0  0  0  0  0  0  0  0  0
   -7.9105  -11.9433    0.0000 C   0  0  0  0  0  0  0  0  0  0  0  0
   -8.9431  -13.0313    0.0000 O   0  0  0  0  0  0  0  0  0  0  0  0
   -6.6970  -12.8249    0.0000 C   0  0  0  0  0  0  0  0  0  0  0  0
   -7.4810  -13.9240    0.0000 C   0  0  0  0  0  0  0  0  0  0  0  0
   -5.2966  -13.3625    0.0000 C   0  0  0  0  0  0  0  0  0  0  0  0
   -5.6468  -14.8210    0.0000 O   0  0  0  0  0  0  0  0  0  0  0  0
   -7.0850  -15.2471    0.0000 C   0  0  0  0  0  0  0  0  0  0  0  0
   -7.4352  -16.7056    0.0000 C   0  0  0  0  0  0  0  0  0  0  0  0
   -8.1703  -14.4441    0.0000 O   0  0  0  0  0  0  0  0  0  0  0  0
   -3.8049  -13.5193    0.0000 C   0  0  0  0  0  0  0  0  0  0  0  0
   -3.7656  -15.0188    0.0000 C   0  0  0  0  0  0  0  0  0  0  0  0
  1  2  1  0
  3  2  1  6
  3  4  1  0
  4  5  2  0
  5  6  1  0
  6  7  1  0
  7  8  1  1
  7  9  1  0
  9 10  1  0
 10 11  2  0
 11 12  1  0
 11 13  1  0
 13 14  1  0
 13 15  2  0
 15 16  1  0
 16 17  1  0
 16 18  2  0
 18 19  1  0
 19 20  2  0
 20 21  1  0
 21 22  2  0
 22 23  1  0
 23 24  2  0
 24 25  1  0
 24 26  1  0
 26 27  2  0
 27 28  1  0
 20 29  1  0
 29 30  2  0
 30 31  1  0
 31 32  2  0
 18 33  1  0
 33 34  1  0
 34 35  2  0
 34 36  1  0
 36 37  1  0
 36 38  2  0
 38 39  1  0
 39 40  2  0
 40 41  1  0
 41 42  1  1
 41 43  1  0
 43 44  1  1
 43 45  1  0
 45 46  1  6
 45 47  1  0
 47 48  1  6
 47 49  1  0
 49 50  1  6
 49 51  1  0
 51 52  1  1
 52 53  1  0
 53 54  1  0
 53 55  2  0
 51 56  1  0
 56 57  1  1
 56  3  1  0
 31  7  1  0
 30 10  1  0
 29 15  1  0
 28 19  1  0
 28 22  1  0
M  END
>  <assay_description>  (324) 
Inhibition of human BSEP overexpressed in Sf9 cell membrane vesicles assessed as uptake of [3H]-taurocholate in presence of ATP measured after 15 to 20 mins by membrane vesicle transport assay

>  <molecule_pref_name>  (324) 
RIFAXIMIN

>  <canonical_smiles>  (324) 
CO[C@H]1/C=C/O[C@@]2(C)Oc3c(C)c(O)c4c(O)c(c5c(nc6cc(C)ccn65)c4c3C2=O)NC(=O)/C(C)=C\C=C\[C@H](C)[C@H](O)[C@@H](C)[C@@H](O)[C@@H](C)[C@H](OC(C)=O)[C@@H]1C

>  <pchembl_value>  (324) 
4.38

>  <standard_type>  (324) 
IC50

>  <standard_relation>  (324) 
=

>  <standard_value>  (324) 
42000.0

>  <standard_units>  (324) 
nM

>  <target_pref_name>  (324) 
Bile salt export pump

>  <target_organism>  (324) 
Homo sapiens

$$$$
CHEMBL451
     RDKit          2D

 21 23  0  0  0  0  0  0  0  0999 V2000
    2.3006   -6.3527    0.0000 C   0  0  0  0  0  0  0  0  0  0  0  0
    2.5242   -4.8694    0.0000 N   0  0  0  0  0  0  0  0  0  0  0  0
    1.3515   -3.9342    0.0000 C   0  0  0  0  0  0  0  0  0  0  0  0
    1.6852   -2.4718    0.0000 N   0  0  0  0  0  0  0  0  0  0  0  0
    0.7500   -1.2990    0.0000 C   0  0  0  0  0  0  0  0  0  0  0  0
    1.5000    0.0000    0.0000 C   0  0  0  0  0  0  0  0  0  0  0  0
    0.7500    1.2990    0.0000 C   0  0  0  0  0  0  0  0  0  0  0  0
   -0.7500    1.2990    0.0000 C   0  0  0  0  0  0  0  0  0  0  0  0
   -1.5000    2.5981    0.0000 Cl  0  0  0  0  0  0  0  0  0  0  0  0
   -1.5000    0.0000    0.0000 C   0  0  0  0  0  0  0  0  0  0  0  0
   -0.7500   -1.2990    0.0000 C   0  0  0  0  0  0  0  0  0  0  0  0
   -1.6852   -2.4718    0.0000 C   0  0  0  0  0  0  0  0  0  0  0  0
   -3.1476   -2.1380    0.0000 C   0  0  0  0  0  0  0  0  0  0  0  0
   -3.5898   -0.7046    0.0000 C   0  0  0  0  0  0  0  0  0  0  0  0
   -5.0522   -0.3709    0.0000 C   0  0  0  0  0  0  0  0  0  0  0  0
   -6.0724   -1.4704    0.0000 C   0  0  0  0  0  0  0  0  0  0  0  0
   -5.6303   -2.9038    0.0000 C   0  0  0  0  0  0  0  0  0  0  0  0
   -4.1679   -3.2376    0.0000 C   0  0  0  0  0  0  0  0  0  0  0  0
   -1.3515   -3.9342    0.0000 N   0  0  0  0  0  4  0  0  0  0  0  0
   -2.5242   -4.8694    0.0000 O   0  0  0  0  0  1  0  0  0  0  0  0
   -0.0000   -4.5850    0.0000 C   0  0  0  0  0  0  0  0  0  0  0  0
  1  2  1  0
  2  3  1  0
  3  4  2  0
  4  5  1  0
  5  6  2  0
  6  7  1  0
  7  8  2  0
  8  9  1  0
  8 10  1  0
 10 11  2  0
 11 12  1  0
 12 13  1  0
 13 14  2  0
 14 15  1  0
 15 16  2  0
 16 17  1  0
 17 18  2  0
 12 19  2  0
 19 20  1  0
 19 21  1  0
 21  3  1  0
 11  5  1  0
 18 13  1  0
M  CHG  2  19   1  20  -1
M  END
>  <assay_description>  (325) 
Inhibition of human BSEP overexpressed in Sf9 cell membrane vesicles assessed as uptake of [3H]-taurocholate in presence of ATP measured after 15 to 20 mins by membrane vesicle transport assay

>  <molecule_pref_name>  (325) 
CHLORDIAZEPOXIDE

>  <canonical_smiles>  (325) 
CNC1=Nc2ccc(Cl)cc2C(c2ccccc2)=[N+]([O-])C1

>  <pchembl_value>  (325) 
4.36

>  <standard_type>  (325) 
IC50

>  <standard_relation>  (325) 
=

>  <standard_value>  (325) 
44100.0

>  <standard_units>  (325) 
nM

>  <target_pref_name>  (325) 
Bile salt export pump

>  <target_organism>  (325) 
Homo sapiens

$$$$
CHEMBL1569487
     RDKit          2D

 23 25  0  0  0  0  0  0  0  0999 V2000
   -2.9499    4.2246    0.0000 C   0  0  0  0  0  0  0  0  0  0  0  0
   -1.8351    3.2209    0.0000 N   0  0  0  0  0  0  0  0  0  0  0  0
   -0.4086    3.6844    0.0000 C   0  0  0  0  0  0  0  0  0  0  0  0
   -0.0967    5.1517    0.0000 C   0  0  0  0  0  0  0  0  0  0  0  0
   -1.2114    6.1554    0.0000 O   0  0  0  0  0  0  0  0  0  0  0  0
    1.3299    5.6152    0.0000 N   0  0  0  0  0  0  0  0  0  0  0  0
    1.6418    7.0824    0.0000 C   0  0  0  0  0  0  0  0  0  0  0  0
    3.0684    7.5459    0.0000 C   0  0  0  0  0  0  0  0  0  0  0  0
    3.3802    9.0132    0.0000 C   0  0  0  0  0  0  0  0  0  0  0  0
    2.2655   10.0169    0.0000 C   0  0  0  0  0  0  0  0  0  0  0  0
    0.8389    9.5533    0.0000 C   0  0  0  0  0  0  0  0  0  0  0  0
    0.5271    8.0861    0.0000 N   0  0  0  0  0  0  0  0  0  0  0  0
    0.7062    2.6807    0.0000 C   0  0  0  0  0  0  0  0  0  0  0  0
    2.1328    3.1443    0.0000 O   0  0  0  0  0  0  0  0  0  0  0  0
    0.3943    1.2135    0.0000 C   0  0  0  0  0  0  0  0  0  0  0  0
    1.2760    0.0000    0.0000 S   0  0  0  0  0  0  0  0  0  0  0  0
    0.3943   -1.2135    0.0000 C   0  0  0  0  0  0  0  0  0  0  0  0
    0.8578   -2.6401    0.0000 Cl  0  0  0  0  0  0  0  0  0  0  0  0
   -1.0323   -0.7500    0.0000 C   0  0  0  0  0  0  0  0  0  0  0  0
   -1.0323    0.7500    0.0000 C   0  0  0  0  0  0  0  0  0  0  0  0
   -2.1470    1.7537    0.0000 S   0  0  0  0  0  0  0  0  0  0  0  0
   -2.9419    0.4816    0.0000 O   0  0  0  0  0  0  0  0  0  0  0  0
   -3.5378    2.3156    0.0000 O   0  0  0  0  0  0  0  0  0  0  0  0
  1  2  1  0
  2  3  1  0
  3  4  1  0
  4  5  2  0
  4  6  1  0
  6  7  1  0
  7  8  2  0
  8  9  1  0
  9 10  2  0
 10 11  1  0
 11 12  2  0
  3 13  2  0
 13 14  1  0
 13 15  1  0
 15 16  1  0
 16 17  1  0
 17 18  1  0
 17 19  2  0
 19 20  1  0
 20 21  1  0
 21 22  2  0
 21 23  2  0
 21  2  1  0
 12  7  1  0
 20 15  2  0
M  END
>  <assay_description>  (326) 
Inhibition of human BSEP overexpressed in Sf9 cell membrane vesicles assessed as uptake of [3H]-taurocholate in presence of ATP measured after 15 to 20 mins by membrane vesicle transport assay

>  <molecule_pref_name>  (326) 
LORNOXICAM

>  <canonical_smiles>  (326) 
CN1C(C(=O)Nc2ccccn2)=C(O)c2sc(Cl)cc2S1(=O)=O

>  <pchembl_value>  (326) 
5.12

>  <standard_type>  (326) 
IC50

>  <standard_relation>  (326) 
=

>  <standard_value>  (326) 
7560.0

>  <standard_units>  (326) 
nM

>  <target_pref_name>  (326) 
Bile salt export pump

>  <target_organism>  (326) 
Homo sapiens

$$$$
CHEMBL1879463
     RDKit          2D

 36 41  0  0  0  0  0  0  0  0999 V2000
    1.4418   -6.4791    0.0000 C   0  0  0  0  0  0  0  0  0  0  0  0
    1.7537   -5.0118    0.0000 N   0  0  0  0  0  0  0  0  0  0  0  0
    3.1240   -4.4017    0.0000 C   0  0  0  0  0  0  0  0  0  0  0  0
    4.4231   -5.1517    0.0000 O   0  0  0  0  0  0  0  0  0  0  0  0
    2.9672   -2.9099    0.0000 N   0  0  0  0  0  0  0  0  0  0  0  0
    4.0819   -1.9062    0.0000 C   0  0  0  0  0  0  0  0  0  0  0  0
    5.5085   -2.3698    0.0000 C   0  0  0  0  0  0  0  0  0  0  0  0
    6.6232   -1.3661    0.0000 C   0  0  0  0  0  0  0  0  0  0  0  0
    6.3114    0.1011    0.0000 C   0  0  0  0  0  0  0  0  0  0  0  0
    7.4261    1.1048    0.0000 C   0  0  0  0  0  0  0  0  0  0  0  0
    6.4224    2.2196    0.0000 C   0  0  0  0  0  0  0  0  0  0  0  0
    8.4298   -0.0099    0.0000 C   0  0  0  0  0  0  0  0  0  0  0  0
    8.5408    2.1085    0.0000 C   0  0  0  0  0  0  0  0  0  0  0  0
    9.6555    3.1122    0.0000 N   0  0  0  0  0  0  0  0  0  0  0  0
    4.8848    0.5647    0.0000 C   0  0  0  0  0  0  0  0  0  0  0  0
    3.7701   -0.4390    0.0000 C   0  0  0  0  0  0  0  0  0  0  0  0
    1.5000   -2.5981    0.0000 C   0  0  0  0  0  0  0  0  0  0  0  0
    0.7500   -1.2990    0.0000 C   0  0  0  0  0  0  0  0  0  0  0  0
    1.5000    0.0000    0.0000 C   0  0  0  0  0  0  0  0  0  0  0  0
    0.7500    1.2990    0.0000 C   0  0  0  0  0  0  0  0  0  0  0  0
    1.5000    2.5981    0.0000 C   0  0  0  0  0  0  0  0  0  0  0  0
    3.0000    2.5981    0.0000 C   0  0  0  0  0  0  0  0  0  0  0  0
    3.7500    3.8971    0.0000 N   0  0  0  0  0  0  0  0  0  0  0  0
    3.0000    5.1962    0.0000 C   0  0  0  0  0  0  0  0  0  0  0  0
    3.7500    6.4952    0.0000 C   0  0  0  0  0  0  0  0  0  0  0  0
    3.0000    7.7942    0.0000 C   0  0  0  0  0  0  0  0  0  0  0  0
    1.5000    7.7942    0.0000 C   0  0  0  0  0  0  0  0  0  0  0  0
    0.7500    6.4952    0.0000 C   0  0  0  0  0  0  0  0  0  0  0  0
    1.5000    5.1962    0.0000 C   0  0  0  0  0  0  0  0  0  0  0  0
    0.7500    3.8971    0.0000 C   0  0  0  0  0  0  0  0  0  0  0  0
   -0.7500    1.2990    0.0000 C   0  0  0  0  0  0  0  0  0  0  0  0
   -1.5000    0.0000    0.0000 C   0  0  0  0  0  0  0  0  0  0  0  0
   -0.7500   -1.2990    0.0000 C   0  0  0  0  0  0  0  0  0  0  0  0
   -1.5000   -2.5981    0.0000 N   0  0  0  0  0  0  0  0  0  0  0  0
   -0.7500   -3.8971    0.0000 C   0  0  0  0  0  0  0  0  0  0  0  0
    0.7500   -3.8971    0.0000 C   0  0  0  0  0  0  0  0  0  0  0  0
  1  2  1  0
  2  3  1  0
  3  4  2  0
  3  5  1  0
  5  6  1  0
  6  7  2  0
  7  8  1  0
  8  9  2  0
  9 10  1  0
 10 11  1  0
 10 12  1  0
 10 13  1  0
 13 14  3  0
  9 15  1  0
 15 16  2  0
  5 17  1  0
 17 18  2  0
 18 19  1  0
 19 20  2  0
 20 21  1  0
 21 22  2  0
 22 23  1  0
 23 24  2  0
 24 25  1  0
 25 26  2  0
 26 27  1  0
 27 28  2  0
 28 29  1  0
 29 30  2  0
 20 31  1  0
 31 32  2  0
 32 33  1  0
 33 34  2  0
 34 35  1  0
 35 36  2  0
 36  2  1  0
 16  6  1  0
 36 17  1  0
 33 18  1  0
 30 21  1  0
 29 24  1  0
M  END
>  <assay_description>  (327) 
Inhibition of human BSEP overexpressed in Sf9 cell membrane vesicles assessed as uptake of [3H]-taurocholate in presence of ATP measured after 15 to 20 mins by membrane vesicle transport assay

>  <molecule_pref_name>  (327) 
DACTOLISIB

>  <canonical_smiles>  (327) 
Cn1c(=O)n(-c2ccc(C(C)(C)C#N)cc2)c2c3cc(-c4cnc5ccccc5c4)ccc3ncc21

>  <pchembl_value>  (327) 
5.10

>  <standard_type>  (327) 
IC50

>  <standard_relation>  (327) 
=

>  <standard_value>  (327) 
7900.0

>  <standard_units>  (327) 
nM

>  <target_pref_name>  (327) 
Bile salt export pump

>  <target_organism>  (327) 
Homo sapiens

$$$$
CHEMBL429023
     RDKit          2D

 29 33  0  0  0  0  0  0  0  0999 V2000
    3.5260    1.2990    0.0000 C   0  0  0  0  0  0  0  0  0  0  0  0
    2.7760    0.0000    0.0000 C   0  0  0  0  0  0  0  0  0  0  0  0
    3.5260   -1.2990    0.0000 C   0  0  0  0  0  0  0  0  0  0  0  0
    1.2760    0.0000    0.0000 C   0  0  0  0  0  0  0  0  0  0  0  0
    0.3943    1.2135    0.0000 C   0  0  0  0  0  0  0  0  0  0  0  0
   -1.0323    0.7500    0.0000 C   0  0  0  0  0  0  0  0  0  0  0  0
   -1.0323   -0.7500    0.0000 C   0  0  0  0  0  0  0  0  0  0  0  0
   -2.3313   -1.5000    0.0000 C   0  0  0  0  0  0  0  0  0  0  0  0
   -3.6304   -0.7500    0.0000 C   0  0  0  0  0  0  0  0  0  0  0  0
   -3.6304    0.7500    0.0000 C   0  0  0  0  0  0  0  0  0  0  0  0
   -2.3313    1.5000    0.0000 C   0  0  0  0  0  0  0  0  0  0  0  0
   -2.3313    3.0000    0.0000 O   0  0  0  0  0  0  0  0  0  0  0  0
   -3.6304    3.7500    0.0000 C   0  0  0  0  0  0  0  0  0  0  0  0
   -3.6304    5.2500    0.0000 C   0  0  0  0  0  0  0  0  0  0  0  0
   -4.9294    6.0000    0.0000 O   0  0  0  0  0  0  0  0  0  0  0  0
   -6.2284    5.2500    0.0000 C   0  0  0  0  0  0  0  0  0  0  0  0
   -7.5275    6.0000    0.0000 C   0  0  0  0  0  0  0  0  0  0  0  0
   -8.8265    5.2500    0.0000 C   0  0  0  0  0  0  0  0  0  0  0  0
  -10.1256    6.0000    0.0000 O   0  0  0  0  0  0  0  0  0  0  0  0
  -10.1256    7.5000    0.0000 C   0  0  0  0  0  0  0  0  0  0  0  0
   -8.8265    3.7500    0.0000 C   0  0  0  0  0  0  0  0  0  0  0  0
  -10.1256    3.0000    0.0000 O   0  0  0  0  0  0  0  0  0  0  0  0
  -11.4246    3.7500    0.0000 C   0  0  0  0  0  0  0  0  0  0  0  0
   -7.5275    3.0000    0.0000 C   0  0  0  0  0  0  0  0  0  0  0  0
   -6.2284    3.7500    0.0000 C   0  0  0  0  0  0  0  0  0  0  0  0
   -4.9294    3.0000    0.0000 C   0  0  0  0  0  0  0  0  0  0  0  0
   -4.9294    1.5000    0.0000 C   0  0  0  0  0  0  0  0  0  0  0  0
   -6.2284    0.7500    0.0000 O   0  0  0  0  0  0  0  0  0  0  0  0
    0.3943   -1.2135    0.0000 O   0  0  0  0  0  0  0  0  0  0  0  0
  1  2  2  0
  2  3  1  0
  4  2  1  6
  4  5  1  0
  5  6  1  0
  6  7  2  0
  7  8  1  0
  8  9  2  0
  9 10  1  0
 10 11  2  0
 11 12  1  0
 12 13  1  0
 13 14  1  1
 14 15  1  0
 15 16  1  0
 16 17  2  0
 17 18  1  0
 18 19  1  0
 19 20  1  0
 18 21  2  0
 21 22  1  0
 22 23  1  0
 21 24  1  0
 24 25  2  0
 25 26  1  0
 26 27  1  1
 27 28  2  0
  7 29  1  0
 29  4  1  0
 11  6  1  0
 26 13  1  0
 27 10  1  0
 25 16  1  0
M  END
>  <assay_description>  (328) 
Inhibition of human BSEP overexpressed in Sf9 cell membrane vesicles assessed as uptake of [3H]-taurocholate in presence of ATP measured after 15 to 20 mins by membrane vesicle transport assay

>  <molecule_pref_name>  (328) 
ROTENONE

>  <canonical_smiles>  (328) 
C=C(C)[C@H]1Cc2c(ccc3c2O[C@@H]2COc4cc(OC)c(OC)cc4[C@@H]2C3=O)O1

>  <pchembl_value>  (328) 
5.10

>  <standard_type>  (328) 
IC50

>  <standard_relation>  (328) 
=

>  <standard_value>  (328) 
8000.0

>  <standard_units>  (328) 
nM

>  <target_pref_name>  (328) 
Bile salt export pump

>  <target_organism>  (328) 
Homo sapiens

$$$$
CHEMBL1555126
     RDKit          2D

 20 22  0  0  0  0  0  0  0  0999 V2000
    7.1010   -3.0688    0.0000 N   0  0  0  0  0  0  0  0  0  0  0  0
    5.8875   -3.9505    0.0000 C   0  0  0  0  0  0  0  0  0  0  0  0
    4.6740   -4.8322    0.0000 C   0  0  0  0  0  0  0  0  0  0  0  0
    3.3037   -4.2221    0.0000 C   0  0  0  0  0  0  0  0  0  0  0  0
    2.0046   -4.9721    0.0000 S   0  0  0  0  0  0  0  0  0  0  0  0
    0.8899   -3.9684    0.0000 C   0  0  0  0  0  0  0  0  0  0  0  0
    1.5000   -2.5981    0.0000 C   0  0  0  0  0  0  0  0  0  0  0  0
    0.7500   -1.2990    0.0000 C   0  0  0  0  0  0  0  0  0  0  0  0
    1.5000    0.0000    0.0000 C   0  0  0  0  0  0  0  0  0  0  0  0
    0.7500    1.2990    0.0000 C   0  0  0  0  0  0  0  0  0  0  0  0
   -0.7500    1.2990    0.0000 C   0  0  0  0  0  0  0  0  0  0  0  0
   -1.5000    0.0000    0.0000 C   0  0  0  0  0  0  0  0  0  0  0  0
   -0.7500   -1.2990    0.0000 C   0  0  0  0  0  0  0  0  0  0  0  0
   -1.5000   -2.5981    0.0000 Cl  0  0  0  0  0  0  0  0  0  0  0  0
    2.9918   -2.7549    0.0000 S   0  0  0  0  0  0  0  0  0  0  0  0
    4.8308   -6.3240    0.0000 N   0  0  0  0  0  0  0  0  0  0  0  0
    6.1298   -7.0740    0.0000 C   0  0  0  0  0  0  0  0  0  0  0  0
    5.8179   -8.5412    0.0000 C   0  0  0  0  0  0  0  0  0  0  0  0
    4.3261   -8.6980    0.0000 N   0  0  0  0  0  0  0  0  0  0  0  0
    3.7160   -7.3277    0.0000 C   0  0  0  0  0  0  0  0  0  0  0  0
  1  2  3  0
  2  3  1  0
  3  4  2  0
  4  5  1  0
  5  6  1  0
  6  7  1  0
  7  8  1  0
  8  9  2  0
  9 10  1  0
 10 11  2  0
 11 12  1  0
 12 13  2  0
 13 14  1  0
  7 15  1  0
  3 16  1  0
 16 17  1  0
 17 18  2  0
 18 19  1  0
 19 20  2  0
 15  4  1  0
 20 16  1  0
 13  8  1  0
M  END
>  <assay_description>  (329) 
Inhibition of human BSEP overexpressed in Sf9 cell membrane vesicles assessed as uptake of [3H]-taurocholate in presence of ATP measured after 15 to 20 mins by membrane vesicle transport assay

>  <molecule_pref_name>  (329) 
LANOCONAZOLE

>  <canonical_smiles>  (329) 
N#C/C(=C1/SCC(c2ccccc2Cl)S1)n1ccnc1

>  <pchembl_value>  (329) 
5.01

>  <standard_type>  (329) 
IC50

>  <standard_relation>  (329) 
=

>  <standard_value>  (329) 
9650.0

>  <standard_units>  (329) 
nM

>  <target_pref_name>  (329) 
Bile salt export pump

>  <target_organism>  (329) 
Homo sapiens

$$$$
CHEMBL1908336
     RDKit          2D

 57 59  0  0  0  0  0  0  0  0999 V2000
    8.3444   -2.5981    0.0000 C   0  0  0  0  0  0  0  0  0  0  0  0
    7.5944   -1.2990    0.0000 C   0  0  0  0  0  0  0  0  0  0  0  0
    6.0944   -1.2990    0.0000 O   0  0  0  0  0  0  0  0  0  0  0  0
    5.3444   -0.0000    0.0000 C   0  0  0  0  0  0  0  0  0  0  0  0
    6.3864    1.0790    0.0000 O   0  0  0  0  0  0  0  0  0  0  0  0
    3.8444    0.0000    0.0000 C   0  0  0  0  0  0  0  0  0  0  0  0
    3.5517   -1.4712    0.0000 C   0  0  0  0  0  0  0  0  0  0  0  0
    2.7184   -2.7184    0.0000 C   0  0  0  0  0  0  0  0  0  0  0  0
    3.7790   -3.7790    0.0000 O   0  0  0  0  0  0  0  0  0  0  0  0
    1.4712   -3.5517    0.0000 O   0  0  0  0  0  0  0  0  0  0  0  0
   -0.0000   -3.8444    0.0000 C   0  0  0  0  0  0  0  0  0  0  0  0
   -0.0000   -5.3444    0.0000 C   0  0  0  0  0  0  0  0  0  0  0  0
   -1.4712   -3.5517    0.0000 C   0  0  0  0  0  0  0  0  0  0  0  0
   -2.7184   -2.7184    0.0000 C   0  0  0  0  0  0  0  0  0  0  0  0
   -3.5517   -1.4712    0.0000 C   0  0  0  0  0  0  0  0  0  0  0  0
   -3.8444    0.0000    0.0000 C   0  0  0  0  0  0  0  0  0  0  0  0
   -3.5517    1.4712    0.0000 C   0  0  0  0  0  0  0  0  0  0  0  0
   -2.7184    2.7184    0.0000 C   0  0  0  0  0  0  0  0  0  0  0  0
   -3.7790    3.7790    0.0000 O   0  0  0  0  0  0  0  0  0  0  0  0
   -1.4712    3.5517    0.0000 C   0  0  0  0  0  0  0  0  0  0  0  0
   -2.0452    4.9376    0.0000 C   0  0  0  0  0  0  0  0  0  0  0  0
    0.0000    3.8444    0.0000 C   0  0  0  0  0  0  0  0  0  0  0  0
    1.4712    3.5517    0.0000 C   0  0  0  0  0  0  0  0  0  0  0  0
    2.0452    4.9376    0.0000 C   0  0  0  0  0  0  0  0  0  0  0  0
    3.5324    5.1333    0.0000 C   0  0  0  0  0  0  0  0  0  0  0  0
    4.1064    6.5192    0.0000 O   0  0  0  0  0  0  0  0  0  0  0  0
    2.7184    2.7184    0.0000 C   0  0  0  0  0  0  0  0  0  0  0  0
    3.7790    3.7790    0.0000 O   0  0  0  0  0  0  0  0  0  0  0  0
    5.2279    3.3908    0.0000 C   0  0  0  0  0  0  0  0  0  0  0  0
    5.6162    1.9419    0.0000 O   0  0  0  0  0  0  0  0  0  0  0  0
    7.0650    1.5537    0.0000 C   0  0  0  0  0  0  0  0  0  0  0  0
    7.4533    0.1048    0.0000 C   0  0  0  0  0  0  0  0  0  0  0  0
    8.1257    2.6144    0.0000 C   0  0  0  0  0  0  0  0  0  0  0  0
    9.5746    2.2261    0.0000 O   0  0  0  0  0  0  0  0  0  0  0  0
   10.6353    3.2868    0.0000 C   0  0  0  0  0  0  0  0  0  0  0  0
   12.0841    2.8986    0.0000 C   0  0  0  0  0  0  0  0  0  0  0  0
   13.1448    3.9592    0.0000 C   0  0  0  0  0  0  0  0  0  0  0  0
   14.5043    4.5931    0.0000 C   0  0  0  0  0  0  0  0  0  0  0  0
   14.0052    2.7305    0.0000 O   0  0  0  0  0  0  0  0  0  0  0  0
   12.7566    5.4081    0.0000 C   0  0  0  0  0  0  0  0  0  0  0  0
   13.8172    6.4688    0.0000 O   0  0  0  0  0  0  0  0  0  0  0  0
   13.4290    7.9177    0.0000 C   0  0  0  0  0  0  0  0  0  0  0  0
   11.9801    8.3059    0.0000 O   0  0  0  0  0  0  0  0  0  0  0  0
   14.4897    8.9783    0.0000 C   0  0  0  0  0  0  0  0  0  0  0  0
   14.1014   10.4272    0.0000 C   0  0  0  0  0  0  0  0  0  0  0  0
   11.3077    5.7963    0.0000 C   0  0  0  0  0  0  0  0  0  0  0  0
   10.9195    7.2452    0.0000 C   0  0  0  0  0  0  0  0  0  0  0  0
   10.2470    4.7357    0.0000 O   0  0  0  0  0  0  0  0  0  0  0  0
    7.7375    4.0632    0.0000 C   0  0  0  0  0  0  0  0  0  0  0  0
    8.7981    5.1239    0.0000 N   0  0  0  0  0  0  0  0  0  0  0  0
    8.4099    6.5728    0.0000 C   0  0  0  0  0  0  0  0  0  0  0  0
    9.5952    5.1100    0.0000 C   0  0  0  0  0  0  0  0  0  0  0  0
    6.2886    4.4515    0.0000 C   0  0  0  0  0  0  0  0  0  0  0  0
    5.9004    5.9004    0.0000 O   0  0  0  0  0  0  0  0  0  0  0  0
    3.5517    1.4712    0.0000 C   0  0  0  0  0  0  0  0  0  0  0  0
    4.9376    2.0452    0.0000 O   0  0  0  0  0  0  0  0  0  0  0  0
    5.4874    3.4408    0.0000 C   0  0  0  0  0  0  0  0  0  0  0  0
  1  2  1  0
  2  3  1  0
  3  4  1  0
  4  5  2  0
  6  4  1  6
  6  7  1  0
  7  8  1  0
  8  9  2  0
  8 10  1  0
 10 11  1  0
 11 12  1  6
 11 13  1  0
 13 14  1  0
 14 15  2  0
 15 16  1  0
 16 17  2  0
 17 18  1  0
 18 19  1  6
 18 20  1  0
 20 21  1  6
 20 22  1  0
 22 23  1  0
 23 24  1  6
 24 25  1  0
 25 26  2  0
 23 27  1  0
 27 28  1  6
 29 28  1  1
 29 30  1  0
 30 31  1  0
 31 32  1  1
 31 33  1  0
 33 34  1  6
 35 34  1  6
 35 36  1  0
 36 37  1  0
 37 38  1  1
 37 39  1  0
 37 40  1  0
 40 41  1  6
 41 42  1  0
 42 43  2  0
 42 44  1  0
 44 45  1  0
 40 46  1  0
 46 47  1  1
 46 48  1  0
 33 49  1  0
 49 50  1  1
 50 51  1  0
 50 52  1  0
 49 53  1  0
 53 54  1  6
 27 55  1  0
 55 56  1  1
 56 57  1  0
 55  6  1  0
 53 29  1  0
 48 35  1  0
M  END
>  <assay_description>  (330) 
Inhibition of human BSEP overexpressed in Sf9 cell membrane vesicles assessed as uptake of [3H]-taurocholate in presence of ATP measured after 15 to 20 mins by membrane vesicle transport assay

>  <molecule_pref_name>  (330) 
MIDECAMYCIN

>  <canonical_smiles>  (330) 
CCOC(=O)[C@@H]1CC(=O)O[C@H](C)C/C=C/C=C/[C@H](O)[C@H](C)C[C@H](CC=O)[C@H](O[C@@H]2O[C@H](C)[C@@H](O[C@H]3C[C@@](C)(O)[C@@H](OC(=O)CC)[C@H](C)O3)[C@H](N(C)C)[C@H]2O)[C@H]1OC

>  <pchembl_value>  (330) 
4.84

>  <standard_type>  (330) 
IC50

>  <standard_relation>  (330) 
=

>  <standard_value>  (330) 
14300.0

>  <standard_units>  (330) 
nM

>  <target_pref_name>  (330) 
Bile salt export pump

>  <target_organism>  (330) 
Homo sapiens

$$$$
CHEMBL2103772
     RDKit          2D

 27 28  0  0  0  0  0  0  0  0999 V2000
   -3.7500   -6.4952    0.0000 C   0  0  0  0  0  0  0  0  0  0  0  0
   -3.0000   -5.1962    0.0000 C   0  0  0  0  0  0  0  0  0  0  0  0
   -3.7500   -3.8971    0.0000 O   0  0  0  0  0  0  0  0  0  0  0  0
   -1.5000   -5.1962    0.0000 S   0  0  0  0  0  0  0  0  0  0  0  0
   -0.7500   -3.8971    0.0000 C   0  0  0  0  0  0  0  0  0  0  0  0
    0.7500   -3.8971    0.0000 C   0  0  0  0  0  0  0  0  0  0  0  0
    1.5000   -2.5981    0.0000 C   0  0  0  0  0  0  0  0  0  0  0  0
    0.7500   -1.2990    0.0000 C   0  0  0  0  0  0  0  0  0  0  0  0
    1.5000    0.0000    0.0000 C   0  0  0  0  0  0  0  0  0  0  0  0
    0.7500    1.2990    0.0000 C   0  0  0  0  0  0  0  0  0  0  0  0
   -0.7500    1.2990    0.0000 C   0  0  0  0  0  0  0  0  0  0  0  0
   -1.5000    0.0000    0.0000 C   0  0  0  0  0  0  0  0  0  0  0  0
   -0.7500   -1.2990    0.0000 C   0  0  0  0  0  0  0  0  0  0  0  0
    1.5000   -5.1962    0.0000 C   0  0  0  0  0  0  0  0  0  0  0  0
    3.0000   -5.1962    0.0000 O   0  0  0  0  0  0  0  0  0  0  0  0
    0.7500   -6.4952    0.0000 N   0  0  0  0  0  0  0  0  0  0  0  0
    1.5000   -7.7942    0.0000 C   0  0  0  0  0  0  0  0  0  0  0  0
    0.7500   -9.0933    0.0000 C   0  0  0  0  0  0  0  0  0  0  0  0
   -0.7500   -9.0933    0.0000 O   0  0  0  0  0  0  0  0  0  0  0  0
    1.5000  -10.3923    0.0000 O   0  0  0  0  0  0  0  0  0  0  0  0
    0.7500  -11.6913    0.0000 C   0  0  0  0  0  0  0  0  0  0  0  0
    1.5000  -12.9904    0.0000 C   0  0  0  0  0  0  0  0  0  0  0  0
    0.7500  -14.2894    0.0000 C   0  0  0  0  0  0  0  0  0  0  0  0
    1.5000  -15.5885    0.0000 C   0  0  0  0  0  0  0  0  0  0  0  0
    3.0000  -15.5885    0.0000 C   0  0  0  0  0  0  0  0  0  0  0  0
    3.7500  -14.2894    0.0000 C   0  0  0  0  0  0  0  0  0  0  0  0
    3.0000  -12.9904    0.0000 C   0  0  0  0  0  0  0  0  0  0  0  0
  1  2  1  0
  2  3  2  0
  2  4  1  0
  4  5  1  0
  5  6  1  0
  6  7  1  0
  7  8  1  0
  8  9  2  0
  9 10  1  0
 10 11  2  0
 11 12  1  0
 12 13  2  0
  6 14  1  0
 14 15  2  0
 14 16  1  0
 16 17  1  0
 17 18  1  0
 18 19  2  0
 18 20  1  0
 20 21  1  0
 21 22  1  0
 22 23  2  0
 23 24  1  0
 24 25  2  0
 25 26  1  0
 26 27  2  0
 13  8  1  0
 27 22  1  0
M  END
>  <assay_description>  (331) 
Inhibition of human BSEP overexpressed in Sf9 cell membrane vesicles assessed as uptake of [3H]-taurocholate in presence of ATP measured after 15 to 20 mins by membrane vesicle transport assay

>  <molecule_pref_name>  (331) 
RACECADOTRIL

>  <canonical_smiles>  (331) 
CC(=O)SCC(Cc1ccccc1)C(=O)NCC(=O)OCc1ccccc1

>  <pchembl_value>  (331) 
4.69

>  <standard_type>  (331) 
IC50

>  <standard_relation>  (331) 
=

>  <standard_value>  (331) 
20300.0

>  <standard_units>  (331) 
nM

>  <target_pref_name>  (331) 
Bile salt export pump

>  <target_organism>  (331) 
Homo sapiens

$$$$
CHEMBL475534
     RDKit          2D

 26 27  0  0  0  0  0  0  0  0999 V2000
    6.0000   -2.5981    0.0000 C   0  0  0  0  0  0  0  0  0  0  0  0
    5.2500   -1.2990    0.0000 C   0  0  0  0  0  0  0  0  0  0  0  0
    3.7500   -1.2990    0.0000 O   0  0  0  0  0  0  0  0  0  0  0  0
    3.0000    0.0000    0.0000 C   0  0  0  0  0  0  0  0  0  0  0  0
    3.7500    1.2990    0.0000 O   0  0  0  0  0  0  0  0  0  0  0  0
    1.5000    0.0000    0.0000 C   0  0  0  0  0  0  0  0  0  0  0  0
    0.7500   -1.2990    0.0000 C   0  0  0  0  0  0  0  0  0  0  0  0
    1.5000   -2.5981    0.0000 C   0  0  0  0  0  0  0  0  0  0  0  0
   -0.7500   -1.2990    0.0000 N   0  0  0  0  0  0  0  0  0  0  0  0
   -1.5000    0.0000    0.0000 C   0  0  0  0  0  0  0  0  0  0  0  0
   -3.0000    0.0000    0.0000 C   0  0  0  0  0  0  0  0  0  0  0  0
   -0.7500    1.2990    0.0000 C   0  0  0  0  0  0  0  0  0  0  0  0
   -1.5000    2.5981    0.0000 C   0  0  0  0  0  0  0  0  0  0  0  0
   -0.7500    3.8971    0.0000 O   0  0  0  0  0  0  0  0  0  0  0  0
   -3.0000    2.5981    0.0000 O   0  0  0  0  0  0  0  0  0  0  0  0
   -3.7500    3.8971    0.0000 C   0  0  0  0  0  0  0  0  0  0  0  0
    0.7500    1.2990    0.0000 C   0  0  0  0  0  0  0  0  0  0  0  0
    1.5000    2.5981    0.0000 C   0  0  0  0  0  0  0  0  0  0  0  0
    3.0000    2.5981    0.0000 C   0  0  0  0  0  0  0  0  0  0  0  0
    3.7500    3.8971    0.0000 C   0  0  0  0  0  0  0  0  0  0  0  0
    3.0000    5.1962    0.0000 C   0  0  0  0  0  0  0  0  0  0  0  0
    1.5000    5.1962    0.0000 C   0  0  0  0  0  0  0  0  0  0  0  0
    0.7500    6.4952    0.0000 N   0  0  0  0  0  4  0  0  0  0  0  0
   -0.7500    6.4952    0.0000 O   0  0  0  0  0  0  0  0  0  0  0  0
    1.5000    7.7942    0.0000 O   0  0  0  0  0  1  0  0  0  0  0  0
    0.7500    3.8971    0.0000 C   0  0  0  0  0  0  0  0  0  0  0  0
  1  2  1  0
  2  3  1  0
  3  4  1  0
  4  5  2  0
  4  6  1  0
  6  7  2  0
  7  8  1  0
  7  9  1  0
  9 10  1  0
 10 11  1  0
 10 12  2  0
 12 13  1  0
 13 14  2  0
 13 15  1  0
 15 16  1  0
 12 17  1  0
 17 18  1  0
 18 19  2  0
 19 20  1  0
 20 21  2  0
 21 22  1  0
 22 23  1  0
 23 24  2  0
 23 25  1  0
 22 26  2  0
 17  6  1  0
 26 18  1  0
M  CHG  2  23   1  25  -1
M  END
>  <assay_description>  (332) 
Inhibition of human BSEP overexpressed in Sf9 cell membrane vesicles assessed as uptake of [3H]-taurocholate in presence of ATP measured after 15 to 20 mins by membrane vesicle transport assay

>  <molecule_pref_name>  (332) 
NITRENDIPINE

>  <canonical_smiles>  (332) 
CCOC(=O)C1=C(C)NC(C)=C(C(=O)OC)C1c1cccc([N+](=O)[O-])c1

>  <pchembl_value>  (332) 
4.65

>  <standard_type>  (332) 
IC50

>  <standard_relation>  (332) 
=

>  <standard_value>  (332) 
22500.0

>  <standard_units>  (332) 
nM

>  <target_pref_name>  (332) 
Bile salt export pump

>  <target_organism>  (332) 
Homo sapiens

$$$$
CHEMBL111
     RDKit          2D

 30 33  0  0  0  0  0  0  0  0999 V2000
    3.9955   -4.2382    0.0000 C   0  0  0  0  0  0  0  0  0  0  0  0
    2.9918   -5.3529    0.0000 C   0  0  0  0  0  0  0  0  0  0  0  0
    1.5000   -5.1962    0.0000 C   0  0  0  0  0  0  0  0  0  0  0  0
    0.7500   -3.8971    0.0000 C   0  0  0  0  0  0  0  0  0  0  0  0
   -0.7500   -3.8971    0.0000 O   0  0  0  0  0  0  0  0  0  0  0  0
    1.5000   -2.5981    0.0000 N   0  0  0  0  0  0  0  0  0  0  0  0
    0.7500   -1.2990    0.0000 N   0  0  0  0  0  0  0  0  0  0  0  0
    1.5000    0.0000    0.0000 C   0  0  0  0  0  0  0  0  0  0  0  0
    0.7500    1.2990    0.0000 C   0  0  0  0  0  0  0  0  0  0  0  0
   -0.7500    1.2990    0.0000 C   0  0  0  0  0  0  0  0  0  0  0  0
   -1.5000    0.0000    0.0000 C   0  0  0  0  0  0  0  0  0  0  0  0
   -0.7500   -1.2990    0.0000 C   0  0  0  0  0  0  0  0  0  0  0  0
    0.8899   -6.5665    0.0000 N   0  0  0  0  0  0  0  0  0  0  0  0
    2.0046   -7.5702    0.0000 N   0  0  0  0  0  0  0  0  0  0  0  0
    1.8478   -9.0619    0.0000 C   0  0  0  0  0  0  0  0  0  0  0  0
    3.0613   -9.9436    0.0000 C   0  0  0  0  0  0  0  0  0  0  0  0
    2.9046  -11.4354    0.0000 C   0  0  0  0  0  0  0  0  0  0  0  0
    1.5342  -12.0455    0.0000 C   0  0  0  0  0  0  0  0  0  0  0  0
    1.3774  -13.5373    0.0000 Cl  0  0  0  0  0  0  0  0  0  0  0  0
    0.3207  -11.1638    0.0000 C   0  0  0  0  0  0  0  0  0  0  0  0
    0.4775   -9.6721    0.0000 C   0  0  0  0  0  0  0  0  0  0  0  0
   -0.7360   -8.7904    0.0000 Cl  0  0  0  0  0  0  0  0  0  0  0  0
    3.3037   -6.8202    0.0000 C   0  0  0  0  0  0  0  0  0  0  0  0
    4.6740   -7.4303    0.0000 C   0  0  0  0  0  0  0  0  0  0  0  0
    4.8308   -8.9221    0.0000 C   0  0  0  0  0  0  0  0  0  0  0  0
    6.2011   -9.5322    0.0000 C   0  0  0  0  0  0  0  0  0  0  0  0
    7.4146   -8.6505    0.0000 C   0  0  0  0  0  0  0  0  0  0  0  0
    8.7849   -9.2606    0.0000 Cl  0  0  0  0  0  0  0  0  0  0  0  0
    7.2578   -7.1587    0.0000 C   0  0  0  0  0  0  0  0  0  0  0  0
    5.8875   -6.5486    0.0000 C   0  0  0  0  0  0  0  0  0  0  0  0
  1  2  1  0
  2  3  1  0
  3  4  1  0
  4  5  2  0
  4  6  1  0
  6  7  1  0
  7  8  1  0
  8  9  1  0
  9 10  1  0
 10 11  1  0
 11 12  1  0
  3 13  2  0
 13 14  1  0
 14 15  1  0
 15 16  2  0
 16 17  1  0
 17 18  2  0
 18 19  1  0
 18 20  1  0
 20 21  2  0
 21 22  1  0
 14 23  1  0
 23 24  1  0
 24 25  2  0
 25 26  1  0
 26 27  2  0
 27 28  1  0
 27 29  1  0
 29 30  2  0
 23  2  2  0
 30 24  1  0
 12  7  1  0
 21 15  1  0
M  END
>  <assay_description>  (333) 
Inhibition of human BSEP overexpressed in Sf9 cell membrane vesicles assessed as uptake of [3H]-taurocholate in presence of ATP measured after 15 to 20 mins by membrane vesicle transport assay

>  <molecule_pref_name>  (333) 
RIMONABANT

>  <canonical_smiles>  (333) 
Cc1c(C(=O)NN2CCCCC2)nn(-c2ccc(Cl)cc2Cl)c1-c1ccc(Cl)cc1

>  <pchembl_value>  (333) 
4.60

>  <standard_type>  (333) 
IC50

>  <standard_relation>  (333) 
=

>  <standard_value>  (333) 
25000.0

>  <standard_units>  (333) 
nM

>  <target_pref_name>  (333) 
Bile salt export pump

>  <target_organism>  (333) 
Homo sapiens

$$$$
CHEMBL277535
     RDKit          2D

 24 27  0  0  0  0  0  0  0  0999 V2000
    1.5000    0.0000    0.0000 C   0  0  0  0  0  0  0  0  0  0  0  0
    0.7500   -1.2990    0.0000 C   0  0  0  0  0  0  0  0  0  0  0  0
   -0.7500   -1.2990    0.0000 C   0  0  0  0  0  0  0  0  0  0  0  0
   -1.5000    0.0000    0.0000 C   0  0  0  0  0  0  0  0  0  0  0  0
   -3.0000    0.0000    0.0000 C   0  0  0  0  0  0  0  0  0  0  0  0
   -3.7500    1.2990    0.0000 C   0  0  0  0  0  0  0  0  0  0  0  0
   -5.2500    1.2990    0.0000 C   0  0  0  0  0  0  0  0  0  0  0  0
   -6.0000    0.0000    0.0000 C   0  0  0  0  0  0  0  0  0  0  0  0
   -7.5000    0.0000    0.0000 C   0  0  0  0  0  0  0  0  0  0  0  0
   -8.2500    1.2990    0.0000 C   0  0  0  0  0  0  0  0  0  0  0  0
   -7.5000    2.5981    0.0000 C   0  0  0  0  0  0  0  0  0  0  0  0
   -8.2500    3.8971    0.0000 C   0  0  0  0  0  0  0  0  0  0  0  0
   -9.7500    3.8971    0.0000 C   0  0  0  0  0  0  0  0  0  0  0  0
  -10.5000    2.5981    0.0000 C   0  0  0  0  0  0  0  0  0  0  0  0
   -9.7500    1.2990    0.0000 C   0  0  0  0  0  0  0  0  0  0  0  0
   -8.2500   -1.2990    0.0000 N   0  0  0  0  0  0  0  0  0  0  0  0
   -7.6399   -2.6694    0.0000 C   0  0  0  0  0  0  0  0  0  0  0  0
   -8.7546   -3.6731    0.0000 C   0  0  0  0  0  0  0  0  0  0  0  0
  -10.0537   -2.9231    0.0000 N   0  0  0  0  0  0  0  0  0  0  0  0
   -9.7418   -1.4558    0.0000 C   0  0  0  0  0  0  0  0  0  0  0  0
   -5.2500   -1.2990    0.0000 C   0  0  0  0  0  0  0  0  0  0  0  0
   -3.7500   -1.2990    0.0000 C   0  0  0  0  0  0  0  0  0  0  0  0
   -0.7500    1.2990    0.0000 C   0  0  0  0  0  0  0  0  0  0  0  0
    0.7500    1.2990    0.0000 C   0  0  0  0  0  0  0  0  0  0  0  0
  1  2  2  0
  2  3  1  0
  3  4  2  0
  4  5  1  0
  5  6  2  0
  6  7  1  0
  7  8  2  0
  8  9  1  0
  9 10  1  0
 10 11  2  0
 11 12  1  0
 12 13  2  0
 13 14  1  0
 14 15  2  0
  9 16  1  0
 16 17  1  0
 17 18  2  0
 18 19  1  0
 19 20  2  0
  8 21  1  0
 21 22  2  0
  4 23  1  0
 23 24  2  0
 24  1  1  0
 22  5  1  0
 15 10  1  0
 20 16  1  0
M  END
>  <assay_description>  (334) 
Inhibition of human BSEP overexpressed in Sf9 cell membrane vesicles assessed as uptake of [3H]-taurocholate in presence of ATP measured after 15 to 20 mins by membrane vesicle transport assay

>  <molecule_pref_name>  (334) 
BIFONAZOLE

>  <canonical_smiles>  (334) 
c1ccc(-c2ccc(C(c3ccccc3)n3ccnc3)cc2)cc1

>  <pchembl_value>  (334) 
4.57

>  <standard_type>  (334) 
IC50

>  <standard_relation>  (334) 
=

>  <standard_value>  (334) 
27100.0

>  <standard_units>  (334) 
nM

>  <target_pref_name>  (334) 
Bile salt export pump

>  <target_organism>  (334) 
Homo sapiens

$$$$
CHEMBL254219
     RDKit          2D

 54 61  0  0  0  0  0  0  0  0999 V2000
   -7.5000   -2.5981    0.0000 C   0  0  0  0  0  0  0  0  0  0  0  0
   -8.2500   -3.8971    0.0000 C   0  0  0  0  0  0  0  0  0  0  0  0
   -7.5000   -5.1962    0.0000 O   0  0  0  0  0  0  0  0  0  0  0  0
   -8.2500   -6.4952    0.0000 C   0  0  0  0  0  0  0  0  0  0  0  0
   -7.5000   -7.7942    0.0000 O   0  0  0  0  0  0  0  0  0  0  0  0
   -6.0000   -7.7942    0.0000 C   0  0  0  0  0  0  0  0  0  0  0  0
   -5.2500   -9.0933    0.0000 C   0  0  0  0  0  0  0  0  0  0  0  0
   -6.0000  -10.3923    0.0000 O   0  0  0  0  0  0  0  0  0  0  0  0
   -3.7500   -9.0933    0.0000 C   0  0  0  0  0  0  0  0  0  0  0  0
   -3.0000   -7.7942    0.0000 C   0  0  0  0  0  0  0  0  0  0  0  0
   -1.5000   -7.7942    0.0000 O   0  0  0  0  0  0  0  0  0  0  0  0
   -0.7500   -6.4952    0.0000 C   0  0  0  0  0  0  0  0  0  0  0  0
    0.7500   -6.4952    0.0000 C   0  0  0  0  0  0  0  0  0  0  0  0
    1.5000   -7.7942    0.0000 O   0  0  0  0  0  0  0  0  0  0  0  0
    1.5000   -5.1962    0.0000 C   0  0  0  0  0  0  0  0  0  0  0  0
    0.7500   -3.8971    0.0000 C   0  0  0  0  0  0  0  0  0  0  0  0
    1.5000   -2.5981    0.0000 O   0  0  0  0  0  0  0  0  0  0  0  0
    0.7500   -1.2990    0.0000 C   0  0  0  0  0  0  0  0  0  0  0  0
    1.5000    0.0000    0.0000 C   0  0  0  0  0  0  0  0  0  0  0  0
    0.7500    1.2990    0.0000 C   0  0  0  0  0  0  0  0  0  0  0  0
   -0.7500    1.2990    0.0000 C   0  0  0  0  0  0  0  0  0  0  0  0
    0.0000    2.5981    0.0000 C   0  0  0  0  0  0  0  0  0  0  0  0
   -1.5000    2.5981    0.0000 C   0  0  0  0  0  0  0  0  0  0  0  0
   -0.7500    3.8971    0.0000 C   0  0  0  0  0  0  0  0  0  0  0  0
   -1.5000    5.1962    0.0000 C   0  0  0  0  0  0  0  0  0  0  0  0
   -3.0000    5.1962    0.0000 C   0  0  0  0  0  0  0  0  0  0  0  0
   -2.3899    6.5665    0.0000 C   0  0  0  0  0  0  0  0  0  0  0  0
   -4.0037    6.3109    0.0000 C   0  0  0  0  0  0  0  0  0  0  0  0
   -3.6918    7.7781    0.0000 C   0  0  0  0  0  0  0  0  0  0  0  0
   -4.6955    8.8928    0.0000 C   0  0  0  0  0  0  0  0  0  0  0  0
   -3.9455   10.1918    0.0000 C   0  0  0  0  0  0  0  0  0  0  0  0
   -4.5556   11.5622    0.0000 O   0  0  0  0  0  0  0  0  0  0  0  0
   -2.4783    9.8800    0.0000 O   0  0  0  0  0  0  0  0  0  0  0  0
   -2.3215    8.3882    0.0000 C   0  0  0  0  0  0  0  0  0  0  0  0
   -5.3740    5.7008    0.0000 C   0  0  0  0  0  0  0  0  0  0  0  0
   -5.2172    4.2090    0.0000 C   0  0  0  0  0  0  0  0  0  0  0  0
   -3.7500    3.8971    0.0000 C   0  0  0  0  0  0  0  0  0  0  0  0
   -4.6317    2.6836    0.0000 O   0  0  0  0  0  0  0  0  0  0  0  0
   -3.0000    2.5981    0.0000 C   0  0  0  0  0  0  0  0  0  0  0  0
   -3.7500    1.2990    0.0000 C   0  0  0  0  0  0  0  0  0  0  0  0
   -3.0000    0.0000    0.0000 C   0  0  0  0  0  0  0  0  0  0  0  0
   -1.5000    0.0000    0.0000 C   0  0  0  0  0  0  0  0  0  0  0  0
   -0.7500   -1.2990    0.0000 C   0  0  0  0  0  0  0  0  0  0  0  0
   -0.7500   -3.8971    0.0000 O   0  0  0  0  0  0  0  0  0  0  0  0
   -1.5000   -5.1962    0.0000 C   0  0  0  0  0  0  0  0  0  0  0  0
   -3.0000   -5.1962    0.0000 C   0  0  0  0  0  0  0  0  0  0  0  0
   -3.7500   -6.4952    0.0000 O   0  0  0  0  0  0  0  0  0  0  0  0
   -5.2500   -6.4952    0.0000 C   0  0  0  0  0  0  0  0  0  0  0  0
   -6.0000   -5.1962    0.0000 C   0  0  0  0  0  0  0  0  0  0  0  0
   -9.7500   -6.4952    0.0000 C   0  0  0  0  0  0  0  0  0  0  0  0
  -10.5000   -5.1962    0.0000 C   0  0  0  0  0  0  0  0  0  0  0  0
  -12.0000   -5.1962    0.0000 O   0  0  0  0  0  0  0  0  0  0  0  0
   -9.7500   -3.8971    0.0000 C   0  0  0  0  0  0  0  0  0  0  0  0
  -10.5000   -2.5981    0.0000 O   0  0  0  0  0  0  0  0  0  0  0  0
  2  1  1  1
  2  3  1  0
  3  4  1  0
  4  5  1  1
  6  5  1  6
  6  7  1  0
  7  8  1  6
  7  9  1  0
  9 10  1  0
 10 11  1  1
 12 11  1  6
 12 13  1  0
 13 14  1  6
 13 15  1  0
 15 16  1  0
 16 17  1  1
 18 17  1  6
 18 19  1  0
 19 20  1  0
 20 21  1  0
 21 22  1  6
 21 23  1  0
 23 24  1  6
 24 25  1  0
 25 26  1  0
 26 27  1  6
 26 28  1  0
 28 29  1  6
 29 30  2  0
 30 31  1  0
 31 32  2  0
 31 33  1  0
 33 34  1  0
 28 35  1  0
 35 36  1  0
 36 37  1  0
 37 38  1  6
 37 39  1  0
 39 40  1  1
 40 41  1  0
 42 41  1  1
 42 43  1  0
 16 44  1  0
 44 45  1  0
 45 46  1  1
 10 47  1  0
 47 48  1  0
 48 49  1  1
  4 50  1  0
 50 51  1  0
 51 52  1  6
 51 53  1  0
 53 54  1  6
 53  2  1  0
 48  6  1  0
 45 12  1  0
 43 18  1  0
 42 21  1  0
 39 23  1  0
 37 26  1  0
 34 29  1  0
M  END
>  <assay_description>  (335) 
Inhibition of human BSEP overexpressed in Sf9 cell membrane vesicles assessed as uptake of [3H]-taurocholate in presence of ATP measured after 15 to 20 mins by membrane vesicle transport assay

>  <molecule_pref_name>  (335) 
DIGITOXIN

>  <canonical_smiles>  (335) 
C[C@H]1O[C@@H](O[C@H]2[C@@H](O)C[C@H](O[C@H]3[C@@H](O)C[C@H](O[C@H]4CC[C@]5(C)[C@H]6CC[C@]7(C)[C@@H](C8=CC(=O)OC8)CC[C@]7(O)[C@@H]6CC[C@@H]5C4)O[C@@H]3C)O[C@@H]2C)C[C@H](O)[C@@H]1O

>  <pchembl_value>  (335) 
4.51

>  <standard_type>  (335) 
IC50

>  <standard_relation>  (335) 
=

>  <standard_value>  (335) 
31000.0

>  <standard_units>  (335) 
nM

>  <target_pref_name>  (335) 
Bile salt export pump

>  <target_organism>  (335) 
Homo sapiens

$$$$
CHEMBL1200865
     RDKit          2D

 32 35  0  0  0  0  0  0  0  0999 V2000
  -10.0015   -6.5558    0.0000 C   0  0  0  0  0  0  0  0  0  0  0  0
   -8.6312   -7.1659    0.0000 C   0  0  0  0  0  0  0  0  0  0  0  0
   -7.4177   -6.2842    0.0000 O   0  0  0  0  0  0  0  0  0  0  0  0
   -6.0474   -6.8943    0.0000 C   0  0  0  0  0  0  0  0  0  0  0  0
   -6.0629   -7.7799    0.0000 O   0  0  0  0  0  0  0  0  0  0  0  0
   -4.8338   -6.0126    0.0000 O   0  0  0  0  0  0  0  0  0  0  0  0
   -3.4635   -6.6227    0.0000 C   0  0  0  0  0  0  0  0  0  0  0  0
   -4.2135   -7.9218    0.0000 C   0  0  0  0  0  0  0  0  0  0  0  0
   -5.0927   -8.0297    0.0000 O   0  0  0  0  0  0  0  0  0  0  0  0
   -3.4635   -9.2208    0.0000 O   0  0  0  0  0  0  0  0  0  0  0  0
   -4.2135  -10.5199    0.0000 C   0  0  0  0  0  0  0  0  0  0  0  0
   -3.4635  -11.8189    0.0000 Cl  0  0  0  0  0  0  0  0  0  0  0  0
   -2.2500   -7.5044    0.0000 C   0  0  0  0  0  0  0  0  0  0  0  0
   -1.0365   -6.6227    0.0000 C   0  0  0  0  0  0  0  0  0  0  0  0
   -1.5000   -5.1962    0.0000 C   0  0  0  0  0  0  0  0  0  0  0  0
   -0.7500   -3.8971    0.0000 C   0  0  0  0  0  0  0  0  0  0  0  0
    0.7500   -3.8971    0.0000 C   0  0  0  0  0  0  0  0  0  0  0  0
    1.5000   -2.5981    0.0000 C   0  0  0  0  0  0  0  0  0  0  0  0
    0.7500   -1.2990    0.0000 C   0  0  0  0  0  0  0  0  0  0  0  0
    1.5000    0.0000    0.0000 C   0  0  0  0  0  0  0  0  0  0  0  0
    0.7500    1.2990    0.0000 C   0  0  0  0  0  0  0  0  0  0  0  0
    1.5000    2.5981    0.0000 O   0  0  0  0  0  0  0  0  0  0  0  0
   -0.7500    1.2990    0.0000 C   0  0  0  0  0  0  0  0  0  0  0  0
   -1.5000    0.0000    0.0000 C   0  0  0  0  0  0  0  0  0  0  0  0
   -0.7500   -1.2990    0.0000 C   0  0  0  0  0  0  0  0  0  0  0  0
   -2.2500   -1.2990    0.0000 C   0  0  0  0  0  0  0  0  0  0  0  0
   -1.5000   -2.5981    0.0000 C   0  0  0  0  0  0  0  0  0  0  0  0
   -3.0000   -2.5981    0.0000 C   0  0  0  0  0  0  0  0  0  0  0  0
   -3.7500   -1.2990    0.0000 O   0  0  0  0  0  0  0  0  0  0  0  0
   -3.7500   -3.8971    0.0000 C   0  0  0  0  0  0  0  0  0  0  0  0
   -3.0000   -5.1962    0.0000 C   0  0  0  0  0  0  0  0  0  0  0  0
   -4.4854   -4.9873    0.0000 C   0  0  0  0  0  0  0  0  0  0  0  0
  1  2  1  0
  2  3  1  0
  3  4  1  0
  4  5  2  0
  4  6  1  0
  7  6  1  1
  7  8  1  0
  8  9  2  0
  8 10  1  0
 10 11  1  0
 11 12  1  0
  7 13  1  0
 13 14  1  0
 15 14  1  6
 15 16  1  0
 16 17  1  1
 17 18  1  0
 18 19  1  0
 19 20  2  0
 20 21  1  0
 21 22  2  0
 21 23  1  0
 23 24  2  0
 24 25  1  0
 25 26  1  6
 25 27  1  0
 27 28  1  6
 28 29  1  6
 28 30  1  0
 30 31  1  0
 31 32  1  6
 31  7  1  0
 31 15  1  0
 27 16  1  0
 25 19  1  0
M  END
>  <assay_description>  (336) 
Inhibition of human BSEP overexpressed in Sf9 cell membrane vesicles assessed as uptake of [3H]-taurocholate in presence of ATP measured after 15 to 20 mins by membrane vesicle transport assay

>  <molecule_pref_name>  (336) 
LOTEPREDNOL ETABONATE

>  <canonical_smiles>  (336) 
CCOC(=O)O[C@]1(C(=O)OCCl)CC[C@H]2[C@@H]3CCC4=CC(=O)C=C[C@]4(C)[C@H]3[C@@H](O)C[C@@]21C

>  <pchembl_value>  (336) 
4.39

>  <standard_type>  (336) 
IC50

>  <standard_relation>  (336) 
=

>  <standard_value>  (336) 
40400.0

>  <standard_units>  (336) 
nM

>  <target_pref_name>  (336) 
Bile salt export pump

>  <target_organism>  (336) 
Homo sapiens

$$$$
CHEMBL1200799
     RDKit          2D

 35 36  0  0  0  0  0  0  0  0999 V2000
   -5.3734    1.7180    0.0000 C   0  0  0  0  0  0  0  0  0  0  0  0
   -5.8369    0.2914    0.0000 C   0  0  0  0  0  0  0  0  0  0  0  0
   -7.3041   -0.0205    0.0000 C   0  0  0  0  0  0  0  0  0  0  0  0
   -4.8332   -0.8233    0.0000 O   0  0  0  0  0  0  0  0  0  0  0  0
   -5.2967   -2.2499    0.0000 C   0  0  0  0  0  0  0  0  0  0  0  0
   -6.7640   -2.5618    0.0000 O   0  0  0  0  0  0  0  0  0  0  0  0
   -4.2930   -3.3646    0.0000 C   0  0  0  0  0  0  0  0  0  0  0  0
   -4.7566   -4.7912    0.0000 C   0  0  0  0  0  0  0  0  0  0  0  0
   -3.7529   -5.9059    0.0000 C   0  0  0  0  0  0  0  0  0  0  0  0
   -4.2164   -7.3325    0.0000 C   0  0  0  0  0  0  0  0  0  0  0  0
   -3.2127   -8.4472    0.0000 C   0  0  0  0  0  0  0  0  0  0  0  0
   -1.7455   -8.1353    0.0000 C   0  0  0  0  0  0  0  0  0  0  0  0
   -0.7418   -9.2501    0.0000 C   0  0  0  0  0  0  0  0  0  0  0  0
   -1.0537  -10.7173    0.0000 C   0  0  0  0  0  0  0  0  0  0  0  0
   -2.4240  -11.3274    0.0000 O   0  0  0  0  0  0  0  0  0  0  0  0
    0.2454  -11.4673    0.0000 C   0  0  0  0  0  0  0  0  0  0  0  0
    1.3601  -10.4636    0.0000 C   0  0  0  0  0  0  0  0  0  0  0  0
    2.8273  -10.7755    0.0000 O   0  0  0  0  0  0  0  0  0  0  0  0
    0.7500   -9.0933    0.0000 C   0  0  0  0  0  0  0  0  0  0  0  0
    1.5000   -7.7942    0.0000 C   0  0  0  0  0  0  0  0  0  0  0  0
    0.7500   -6.4952    0.0000 C   0  0  0  0  0  0  0  0  0  0  0  0
    1.5000   -5.1962    0.0000 C   0  0  0  0  0  0  0  0  0  0  0  0
    3.0000   -5.1962    0.0000 O   0  0  0  0  0  0  0  0  0  0  0  0
    0.7500   -3.8971    0.0000 C   0  0  0  0  0  0  0  0  0  0  0  0
    1.5000   -2.5981    0.0000 O   0  0  0  0  0  0  0  0  0  0  0  0
    0.7500   -1.2990    0.0000 C   0  0  0  0  0  0  0  0  0  0  0  0
   -0.7500   -1.2990    0.0000 C   0  0  0  0  0  0  0  0  0  0  0  0
   -1.5000   -0.0000    0.0000 C   0  0  0  0  0  0  0  0  0  0  0  0
   -0.7500    1.2990    0.0000 C   0  0  0  0  0  0  0  0  0  0  0  0
    0.7500    1.2990    0.0000 C   0  0  0  0  0  0  0  0  0  0  0  0
    1.5000    2.5981    0.0000 C   0  0  0  0  0  0  0  0  0  0  0  0
    2.2500    3.8971    0.0000 F   0  0  0  0  0  0  0  0  0  0  0  0
    0.2010    3.3481    0.0000 F   0  0  0  0  0  0  0  0  0  0  0  0
    2.7990    1.8481    0.0000 F   0  0  0  0  0  0  0  0  0  0  0  0
    1.5000   -0.0000    0.0000 C   0  0  0  0  0  0  0  0  0  0  0  0
  1  2  1  0
  2  3  1  0
  2  4  1  0
  4  5  1  0
  5  6  2  0
  5  7  1  0
  7  8  1  0
  8  9  1  0
  9 10  1  0
 10 11  2  0
 11 12  1  0
 13 12  1  6
 13 14  1  0
 14 15  1  6
 14 16  1  0
 16 17  1  0
 17 18  1  6
 17 19  1  0
 19 20  1  1
 20 21  2  0
 21 22  1  0
 22 23  1  6
 22 24  1  0
 24 25  1  0
 25 26  1  0
 26 27  2  0
 27 28  1  0
 28 29  2  0
 29 30  1  0
 30 31  1  0
 31 32  1  0
 31 33  1  0
 31 34  1  0
 30 35  2  0
 19 13  1  0
 35 26  1  0
M  END
>  <assay_description>  (337) 
Inhibition of human BSEP overexpressed in Sf9 cell membrane vesicles assessed as uptake of [3H]-taurocholate in presence of ATP measured after 15 to 20 mins by membrane vesicle transport assay

>  <molecule_pref_name>  (337) 
TRAVOPROST

>  <canonical_smiles>  (337) 
CC(C)OC(=O)CCC/C=C\C[C@H]1[C@@H](O)C[C@@H](O)[C@@H]1/C=C/[C@@H](O)COc1cccc(C(F)(F)F)c1

>  <pchembl_value>  (337) 
4.36

>  <standard_type>  (337) 
IC50

>  <standard_relation>  (337) 
=

>  <standard_value>  (337) 
43900.0

>  <standard_units>  (337) 
nM

>  <target_pref_name>  (337) 
Bile salt export pump

>  <target_organism>  (337) 
Homo sapiens

$$$$
CHEMBL3109278
     RDKit          2D

 38 39  0  0  0  0  0  0  0  0999 V2000
  -12.9041   -9.3825    0.0000 C   0  0  0  0  0  0  0  0  0  0  0  0
  -11.7894   -8.3788    0.0000 C   0  0  0  0  0  0  0  0  0  0  0  0
  -10.3628   -8.8423    0.0000 N   0  0  0  0  0  0  0  0  0  0  0  0
  -10.0510  -10.3095    0.0000 C   0  0  0  0  0  0  0  0  0  0  0  0
  -11.1657  -11.3132    0.0000 C   0  0  0  0  0  0  0  0  0  0  0  0
   -9.2481   -7.8386    0.0000 C   0  0  0  0  0  0  0  0  0  0  0  0
   -7.8215   -8.3021    0.0000 C   0  0  0  0  0  0  0  0  0  0  0  0
   -6.7068   -7.2984    0.0000 N   0  0  0  0  0  0  0  0  0  0  0  0
   -5.2802   -7.7620    0.0000 C   0  0  0  0  0  0  0  0  0  0  0  0
   -4.9684   -9.2292    0.0000 O   0  0  0  0  0  0  0  0  0  0  0  0
   -4.1655   -6.7583    0.0000 C   0  0  0  0  0  0  0  0  0  0  0  0
   -2.6983   -7.0701    0.0000 C   0  0  0  0  0  0  0  0  0  0  0  0
   -2.0882   -8.4404    0.0000 C   0  0  0  0  0  0  0  0  0  0  0  0
   -1.9483   -5.7711    0.0000 N   0  0  0  0  0  0  0  0  0  0  0  0
   -2.9520   -4.6564    0.0000 C   0  0  0  0  0  0  0  0  0  0  0  0
   -2.6401   -3.1891    0.0000 C   0  0  0  0  0  0  0  0  0  0  0  0
   -1.2135   -2.7256    0.0000 C   0  0  0  0  0  0  0  0  0  0  0  0
   -0.0000   -3.6073    0.0000 C   0  0  0  0  0  0  0  0  0  0  0  0
    0.0000   -5.1073    0.0000 O   0  0  0  0  0  0  0  0  0  0  0  0
    1.2135   -2.7256    0.0000 N   0  0  0  0  0  0  0  0  0  0  0  0
    0.7500   -1.2990    0.0000 C   0  0  0  0  0  0  0  0  0  0  0  0
    1.5000    0.0000    0.0000 C   0  0  0  0  0  0  0  0  0  0  0  0
    0.7500    1.2990    0.0000 C   0  0  0  0  0  0  0  0  0  0  0  0
   -0.7500    1.2990    0.0000 C   0  0  0  0  0  0  0  0  0  0  0  0
   -1.5000    2.5981    0.0000 F   0  0  0  0  0  0  0  0  0  0  0  0
   -1.5000    0.0000    0.0000 C   0  0  0  0  0  0  0  0  0  0  0  0
   -0.7500   -1.2990    0.0000 C   0  0  0  0  0  0  0  0  0  0  0  0
   -4.3223   -5.2665    0.0000 C   0  0  0  0  0  0  0  0  0  0  0  0
   -5.6213   -4.5165    0.0000 C   0  0  0  0  0  0  0  0  0  0  0  0
   -1.2990    7.3481    0.0000 O   0  0  0  0  0  0  0  0  0  0  0  0
   -1.2990    5.8481    0.0000 C   0  0  0  0  0  0  0  0  0  0  0  0
   -2.5981    5.0981    0.0000 O   0  0  0  0  0  0  0  0  0  0  0  0
    0.0000    5.0981    0.0000 C   0  0  0  0  0  0  0  0  0  0  0  0
    1.2990    5.8481    0.0000 C   0  0  0  0  0  0  0  0  0  0  0  0
    1.2990    7.3481    0.0000 O   0  0  0  0  0  0  0  0  0  0  0  0
    2.5981    5.0981    0.0000 C   0  0  0  0  0  0  0  0  0  0  0  0
    2.5981    3.5981    0.0000 O   0  0  0  0  0  0  0  0  0  0  0  0
    3.8971    5.8481    0.0000 O   0  0  0  0  0  0  0  0  0  0  0  0
  1  2  1  0
  2  3  1  0
  3  4  1  0
  4  5  1  0
  3  6  1  0
  6  7  1  0
  7  8  1  0
  8  9  1  0
  9 10  2  0
  9 11  1  0
 11 12  2  0
 12 13  1  0
 12 14  1  0
 14 15  1  0
 15 16  1  0
 16 17  2  0
 17 18  1  0
 18 19  2  0
 18 20  1  0
 20 21  1  0
 21 22  2  0
 22 23  1  0
 23 24  2  0
 24 25  1  0
 24 26  1  0
 26 27  2  0
 15 28  2  0
 28 29  1  0
 30 31  2  0
 31 32  1  0
 31 33  1  0
 33 34  1  0
 34 35  1  0
 34 36  1  0
 36 37  2  0
 36 38  1  0
 28 11  1  0
 27 17  1  0
 27 21  1  0
M  END
>  <assay_description>  (338) 
Inhibition of human BSEP overexpressed in Sf9 cell membrane vesicles assessed as uptake of [3H]-taurocholate in presence of ATP measured after 15 to 20 mins by membrane vesicle transport assay

>  <molecule_pref_name>  (338) 
None

>  <canonical_smiles>  (338) 
CCN(CC)CCNC(=O)c1c(C)[nH]c(/C=C2\C(=O)Nc3ccc(F)cc32)c1C.O=C(O)CC(O)C(=O)O

>  <pchembl_value>  (338) 
4.34

>  <standard_type>  (338) 
IC50

>  <standard_relation>  (338) 
=

>  <standard_value>  (338) 
46000.0

>  <standard_units>  (338) 
nM

>  <target_pref_name>  (338) 
Bile salt export pump

>  <target_organism>  (338) 
Homo sapiens

$$$$
CHEMBL1200585
     RDKit          2D

 24 27  0  0  0  0  0  0  0  0999 V2000
   -1.5233    4.6881    0.0000 C   0  0  0  0  0  0  0  0  0  0  0  0
   -0.0967    5.1517    0.0000 C   0  0  0  0  0  0  0  0  0  0  0  0
   -1.2114    6.1554    0.0000 C   0  0  0  0  0  0  0  0  0  0  0  0
   -0.8995    7.6226    0.0000 C   0  0  0  0  0  0  0  0  0  0  0  0
   -2.0143    8.6263    0.0000 C   0  0  0  0  0  0  0  0  0  0  0  0
   -1.7024   10.0935    0.0000 O   0  0  0  0  0  0  0  0  0  0  0  0
    0.5271    8.0861    0.0000 C   0  0  0  0  0  0  0  0  0  0  0  0
    0.8389    9.5533    0.0000 O   0  0  0  0  0  0  0  0  0  0  0  0
    1.6418    7.0824    0.0000 C   0  0  0  0  0  0  0  0  0  0  0  0
    1.3299    5.6152    0.0000 C   0  0  0  0  0  0  0  0  0  0  0  0
    2.4446    4.6115    0.0000 C   0  0  0  0  0  0  0  0  0  0  0  0
    2.1328    3.1443    0.0000 C   0  0  0  0  0  0  0  0  0  0  0  0
    0.7062    2.6807    0.0000 C   0  0  0  0  0  0  0  0  0  0  0  0
   -0.4086    3.6844    0.0000 C   0  0  0  0  0  0  0  0  0  0  0  0
   -1.8351    3.2209    0.0000 C   0  0  0  0  0  0  0  0  0  0  0  0
   -2.1470    1.7537    0.0000 C   0  0  0  0  0  0  0  0  0  0  0  0
   -1.0323    0.7500    0.0000 C   0  0  0  0  0  0  0  0  0  0  0  0
   -2.4668    0.3115    0.0000 C   0  0  0  0  0  0  0  0  0  0  0  0
    0.3943    1.2135    0.0000 C   0  0  0  0  0  0  0  0  0  0  0  0
    1.2760    0.0000    0.0000 C   0  0  0  0  0  0  0  0  0  0  0  0
    0.3943   -1.2135    0.0000 C   0  0  0  0  0  0  0  0  0  0  0  0
   -1.0323   -0.7500    0.0000 C   0  0  0  0  0  0  0  0  0  0  0  0
   -1.3442   -2.2172    0.0000 C   0  0  0  0  0  0  0  0  0  0  0  0
   -2.5321   -0.7762    0.0000 O   0  0  0  0  0  0  0  0  0  0  0  0
  2  1  1  6
  2  3  1  0
  3  4  1  0
  4  5  2  0
  5  6  1  0
  4  7  1  0
  7  8  2  0
  7  9  1  0
 10  9  1  6
 10 11  1  0
 11 12  1  0
 13 12  1  1
 13 14  1  0
 14 15  1  6
 15 16  1  0
 16 17  1  0
 17 18  1  6
 17 19  1  0
 19 20  1  6
 20 21  1  0
 21 22  1  0
 22 23  1  1
 22 24  1  0
 10  2  1  0
 19 13  1  0
 14  2  1  0
 22 17  1  0
M  END
>  <assay_description>  (339) 
Inhibition of human BSEP overexpressed in Sf9 cell membrane vesicles assessed as uptake of [3H]-taurocholate in presence of ATP measured after 15 to 20 mins by membrane vesicle transport assay

>  <molecule_pref_name>  (339) 
OXYMETHOLONE

>  <canonical_smiles>  (339) 
C[C@]12C/C(=C/O)C(=O)C[C@@H]1CC[C@@H]1[C@@H]2CC[C@@]2(C)[C@H]1CC[C@]2(C)O

>  <pchembl_value>  (339) 
4.31

>  <standard_type>  (339) 
IC50

>  <standard_relation>  (339) 
=

>  <standard_value>  (339) 
48700.0

>  <standard_units>  (339) 
nM

>  <target_pref_name>  (339) 
Bile salt export pump

>  <target_organism>  (339) 
Homo sapiens

$$$$
CHEMBL1200836
     RDKit          2D

 30 31  0  0  0  0  0  0  0  0999 V2000
    3.0000    0.0000    0.0000 Cl  0  0  0  0  0  0  0  0  0  0  0  0
    1.5000    0.0000    0.0000 C   0  0  0  0  0  0  0  0  0  0  0  0
    0.7500    1.2990    0.0000 C   0  0  0  0  0  0  0  0  0  0  0  0
   -0.7500    1.2990    0.0000 C   0  0  0  0  0  0  0  0  0  0  0  0
   -1.5000    0.0000    0.0000 C   0  0  0  0  0  0  0  0  0  0  0  0
   -3.0000    0.0000    0.0000 C   0  0  0  0  0  0  0  0  0  0  0  0
   -3.7500    1.2990    0.0000 O   0  0  0  0  0  0  0  0  0  0  0  0
   -5.2500    1.2990    0.0000 N   0  0  0  0  0  0  0  0  0  0  0  0
   -6.0000    2.5981    0.0000 C   0  0  0  0  0  0  0  0  0  0  0  0
   -5.2500    3.8971    0.0000 C   0  0  0  0  0  0  0  0  0  0  0  0
   -3.7500    3.8971    0.0000 N   0  0  0  0  0  0  0  0  0  0  0  0
   -2.8683    5.1106    0.0000 C   0  0  0  0  0  0  0  0  0  0  0  0
   -1.4417    4.6471    0.0000 C   0  0  0  0  0  0  0  0  0  0  0  0
   -1.4417    3.1471    0.0000 N   0  0  0  0  0  0  0  0  0  0  0  0
   -2.8683    2.6836    0.0000 C   0  0  0  0  0  0  0  0  0  0  0  0
   -7.5000    2.5981    0.0000 C   0  0  0  0  0  0  0  0  0  0  0  0
   -8.2500    3.8971    0.0000 C   0  0  0  0  0  0  0  0  0  0  0  0
   -9.7500    3.8971    0.0000 C   0  0  0  0  0  0  0  0  0  0  0  0
  -10.5000    2.5981    0.0000 C   0  0  0  0  0  0  0  0  0  0  0  0
  -12.0000    2.5981    0.0000 Cl  0  0  0  0  0  0  0  0  0  0  0  0
   -9.7500    1.2990    0.0000 C   0  0  0  0  0  0  0  0  0  0  0  0
   -8.2500    1.2990    0.0000 C   0  0  0  0  0  0  0  0  0  0  0  0
   -7.5000    0.0000    0.0000 Cl  0  0  0  0  0  0  0  0  0  0  0  0
   -0.7500   -1.2990    0.0000 C   0  0  0  0  0  0  0  0  0  0  0  0
   -1.5000   -2.5981    0.0000 Cl  0  0  0  0  0  0  0  0  0  0  0  0
    0.7500   -1.2990    0.0000 C   0  0  0  0  0  0  0  0  0  0  0  0
   -0.0000    6.1106    0.0000 O   0  0  0  0  0  0  0  0  0  0  0  0
    0.0000    7.6106    0.0000 N   0  0  0  0  0  4  0  0  0  0  0  0
    1.2990    8.3606    0.0000 O   0  0  0  0  0  1  0  0  0  0  0  0
   -1.2990    8.3606    0.0000 O   0  0  0  0  0  0  0  0  0  0  0  0
  1  2  1  0
  2  3  2  0
  3  4  1  0
  4  5  2  0
  5  6  1  0
  6  7  1  0
  7  8  1  0
  8  9  2  0
  9 10  1  0
 10 11  1  0
 11 12  1  0
 12 13  2  0
 13 14  1  0
 14 15  2  0
  9 16  1  0
 16 17  2  0
 17 18  1  0
 18 19  2  0
 19 20  1  0
 19 21  1  0
 21 22  2  0
 22 23  1  0
  5 24  1  0
 24 25  1  0
 24 26  2  0
 27 28  2  0
 28 29  1  0
 28 30  1  0
 26  2  1  0
 15 11  1  0
 22 16  1  0
M  CHG  2  28   1  29  -1
M  END
>  <assay_description>  (340) 
Inhibition of human BSEP overexpressed in Sf9 cell membrane vesicles assessed as uptake of [3H]-taurocholate in presence of ATP measured after 15 to 20 mins by membrane vesicle transport assay

>  <molecule_pref_name>  (340) 
OXICONAZOLE NITRATE

>  <canonical_smiles>  (340) 
Clc1ccc(CO/N=C(\Cn2ccnc2)c2ccc(Cl)cc2Cl)c(Cl)c1.O=[N+]([O-])O

>  <pchembl_value>  (340) 
4.31

>  <standard_type>  (340) 
IC50

>  <standard_relation>  (340) 
=

>  <standard_value>  (340) 
49300.0

>  <standard_units>  (340) 
nM

>  <target_pref_name>  (340) 
Bile salt export pump

>  <target_organism>  (340) 
Homo sapiens

$$$$
CHEMBL416146
     RDKit          2D

 24 26  0  0  0  0  0  0  0  0999 V2000
    3.0000    0.0000    0.0000 C   0  0  0  0  0  0  0  0  0  0  0  0
    1.5000    0.0000    0.0000 C   0  0  0  0  0  0  0  0  0  0  0  0
    0.7500   -1.2990    0.0000 C   0  0  0  0  0  0  0  0  0  0  0  0
   -0.7500   -1.2990    0.0000 C   0  0  0  0  0  0  0  0  0  0  0  0
   -1.5000    0.0000    0.0000 C   0  0  0  0  0  0  0  0  0  0  0  0
   -3.0000    0.0000    0.0000 C   0  0  0  0  0  0  0  0  0  0  0  0
   -3.7500    1.2990    0.0000 N   0  0  0  0  0  0  0  0  0  0  0  0
   -5.2500    1.2990    0.0000 C   0  0  0  0  0  0  0  0  0  0  0  0
   -6.0000    0.0000    0.0000 C   0  0  0  0  0  0  0  0  0  0  0  0
   -7.5000    0.0000    0.0000 Cl  0  0  0  0  0  0  0  0  0  0  0  0
   -5.2500   -1.2990    0.0000 C   0  0  0  0  0  0  0  0  0  0  0  0
   -3.7500   -1.2990    0.0000 C   0  0  0  0  0  0  0  0  0  0  0  0
   -3.0000   -2.5981    0.0000 C   0  0  0  0  0  0  0  0  0  0  0  0
   -3.7500   -3.8971    0.0000 C   0  0  0  0  0  0  0  0  0  0  0  0
   -3.0000   -5.1962    0.0000 C   0  0  0  0  0  0  0  0  0  0  0  0
   -1.5000   -5.1962    0.0000 C   0  0  0  0  0  0  0  0  0  0  0  0
   -0.7500   -6.4952    0.0000 S   0  0  0  0  0  0  0  0  0  0  0  0
   -0.0000   -7.7942    0.0000 C   0  0  0  0  0  0  0  0  0  0  0  0
    0.5490   -5.7452    0.0000 O   0  0  0  0  0  0  0  0  0  0  0  0
   -2.0490   -7.2452    0.0000 O   0  0  0  0  0  0  0  0  0  0  0  0
   -0.7500   -3.8971    0.0000 C   0  0  0  0  0  0  0  0  0  0  0  0
   -1.5000   -2.5981    0.0000 C   0  0  0  0  0  0  0  0  0  0  0  0
   -0.7500    1.2990    0.0000 C   0  0  0  0  0  0  0  0  0  0  0  0
    0.7500    1.2990    0.0000 N   0  0  0  0  0  0  0  0  0  0  0  0
  1  2  1  0
  2  3  2  0
  3  4  1  0
  4  5  2  0
  5  6  1  0
  6  7  2  0
  7  8  1  0
  8  9  2  0
  9 10  1  0
  9 11  1  0
 11 12  2  0
 12 13  1  0
 13 14  2  0
 14 15  1  0
 15 16  2  0
 16 17  1  0
 17 18  1  0
 17 19  2  0
 17 20  2  0
 16 21  1  0
 21 22  2  0
  5 23  1  0
 23 24  2  0
 24  2  1  0
 12  6  1  0
 22 13  1  0
M  END
>  <assay_description>  (341) 
Inhibition of human BSEP overexpressed in Sf9 cell membrane vesicles assessed as uptake of [3H]-taurocholate in presence of ATP measured after 15 to 20 mins by membrane vesicle transport assay

>  <molecule_pref_name>  (341) 
ETORICOXIB

>  <canonical_smiles>  (341) 
Cc1ccc(-c2ncc(Cl)cc2-c2ccc(S(C)(=O)=O)cc2)cn1

>  <pchembl_value>  (341) 
4.27

>  <standard_type>  (341) 
IC50

>  <standard_relation>  (341) 
=

>  <standard_value>  (341) 
53200.0

>  <standard_units>  (341) 
nM

>  <target_pref_name>  (341) 
Bile salt export pump

>  <target_organism>  (341) 
Homo sapiens

$$$$
CHEMBL4082273
     RDKit          2D

 22 25  0  0  0  0  0  0  0  0999 V2000
   -4.9635   -9.2208    0.0000 C   0  0  0  0  0  0  0  0  0  0  0  0
   -4.2135   -7.9218    0.0000 C   0  0  0  0  0  0  0  0  0  0  0  0
   -3.4635   -6.6227    0.0000 C   0  0  0  0  0  0  0  0  0  0  0  0
   -4.8980   -6.1842    0.0000 O   0  0  0  0  0  0  0  0  0  0  0  0
   -2.2500   -7.5044    0.0000 C   0  0  0  0  0  0  0  0  0  0  0  0
   -1.0365   -6.6227    0.0000 C   0  0  0  0  0  0  0  0  0  0  0  0
   -1.5000   -5.1962    0.0000 C   0  0  0  0  0  0  0  0  0  0  0  0
   -0.7500   -3.8971    0.0000 C   0  0  0  0  0  0  0  0  0  0  0  0
    0.7500   -3.8971    0.0000 C   0  0  0  0  0  0  0  0  0  0  0  0
    1.5000   -2.5981    0.0000 C   0  0  0  0  0  0  0  0  0  0  0  0
    0.7500   -1.2990    0.0000 C   0  0  0  0  0  0  0  0  0  0  0  0
    1.5000    0.0000    0.0000 C   0  0  0  0  0  0  0  0  0  0  0  0
    0.7500    1.2990    0.0000 C   0  0  0  0  0  0  0  0  0  0  0  0
    1.5000    2.5981    0.0000 O   0  0  0  0  0  0  0  0  0  0  0  0
   -0.7500    1.2990    0.0000 C   0  0  0  0  0  0  0  0  0  0  0  0
   -1.5000    0.0000    0.0000 C   0  0  0  0  0  0  0  0  0  0  0  0
   -0.7500   -1.2990    0.0000 C   0  0  0  0  0  0  0  0  0  0  0  0
   -1.5000   -2.5981    0.0000 C   0  0  0  0  0  0  0  0  0  0  0  0
   -3.0000   -2.5981    0.0000 C   0  0  0  0  0  0  0  0  0  0  0  0
   -3.7500   -3.8971    0.0000 C   0  0  0  0  0  0  0  0  0  0  0  0
   -3.0000   -5.1962    0.0000 C   0  0  0  0  0  0  0  0  0  0  0  0
   -4.4998   -5.1699    0.0000 C   0  0  0  0  0  0  0  0  0  0  0  0
  1  2  3  0
  2  3  1  0
  3  4  1  1
  3  5  1  0
  5  6  1  0
  7  6  1  6
  7  8  1  0
  8  9  1  1
  9 10  1  0
 10 11  1  0
 11 12  2  0
 12 13  1  0
 13 14  2  0
 13 15  1  0
 15 16  1  0
 17 16  1  1
 17 18  1  0
 18 19  1  6
 19 20  1  0
 20 21  1  0
 21 22  1  6
 21  3  1  0
 21  7  1  0
 18  8  1  0
 17 11  1  0
M  END
>  <assay_description>  (342) 
Inhibition of human BSEP overexpressed in Sf9 cell membrane vesicles assessed as uptake of [3H]-taurocholate in presence of ATP measured after 15 to 20 mins by membrane vesicle transport assay

>  <molecule_pref_name>  (342) 
None

>  <canonical_smiles>  (342) 
C#C[C@@]1(O)CC[C@H]2[C@@H]3CCC4=CC(=O)CC[C@@H]4[C@H]3CC[C@@]21C

>  <pchembl_value>  (342) 
4.26

>  <standard_type>  (342) 
IC50

>  <standard_relation>  (342) 
=

>  <standard_value>  (342) 
55000.0

>  <standard_units>  (342) 
nM

>  <target_pref_name>  (342) 
Bile salt export pump

>  <target_organism>  (342) 
Homo sapiens

$$$$
CHEMBL211501
     RDKit          2D

 39 40  0  0  0  0  0  0  0  0999 V2000
    8.9429   -3.8971    0.0000 C   0  0  0  0  0  0  0  0  0  0  0  0
    8.1929   -2.5981    0.0000 C   0  0  0  0  0  0  0  0  0  0  0  0
    6.6929   -2.5981    0.0000 C   0  0  0  0  0  0  0  0  0  0  0  0
    5.9429   -1.2990    0.0000 C   0  0  0  0  0  0  0  0  0  0  0  0
    4.4429   -1.2990    0.0000 C   0  0  0  0  0  0  0  0  0  0  0  0
    3.6929    0.0000    0.0000 C   0  0  0  0  0  0  0  0  0  0  0  0
    2.1929    0.0000    0.0000 C   0  0  0  0  0  0  0  0  0  0  0  0
    1.6798    1.4095    0.0000 C   0  0  0  0  0  0  0  0  0  0  0  0
    2.8289    2.3737    0.0000 O   0  0  0  0  0  0  0  0  0  0  0  0
    0.3808    2.1595    0.0000 O   0  0  0  0  0  0  0  0  0  0  0  0
   -1.0964    1.8991    0.0000 C   0  0  0  0  0  0  0  0  0  0  0  0
   -1.8464    3.1981    0.0000 C   0  0  0  0  0  0  0  0  0  0  0  0
   -2.0606    0.7500    0.0000 C   0  0  0  0  0  0  0  0  0  0  0  0
   -3.4701    1.2630    0.0000 N   0  0  0  0  0  0  0  0  0  0  0  0
   -3.7306    2.7402    0.0000 C   0  0  0  0  0  0  0  0  0  0  0  0
   -2.5816    3.7044    0.0000 O   0  0  0  0  0  0  0  0  0  0  0  0
   -5.1402    3.2533    0.0000 C   0  0  0  0  0  0  0  0  0  0  0  0
   -5.4006    4.7305    0.0000 C   0  0  0  0  0  0  0  0  0  0  0  0
   -6.8102    5.2435    0.0000 C   0  0  0  0  0  0  0  0  0  0  0  0
   -7.9592    4.2793    0.0000 C   0  0  0  0  0  0  0  0  0  0  0  0
   -7.6988    2.8021    0.0000 C   0  0  0  0  0  0  0  0  0  0  0  0
   -8.8478    1.8379    0.0000 N   0  0  0  0  0  0  0  0  0  0  0  0
  -10.2574    2.3510    0.0000 C   0  0  0  0  0  0  0  0  0  0  0  0
  -11.4064    1.3868    0.0000 O   0  0  0  0  0  0  0  0  0  0  0  0
   -6.2892    2.2891    0.0000 C   0  0  0  0  0  0  0  0  0  0  0  0
   -6.0288    0.8119    0.0000 O   0  0  0  0  0  0  0  0  0  0  0  0
   -2.0606   -0.7500    0.0000 C   0  0  0  0  0  0  0  0  0  0  0  0
   -3.4701   -1.2630    0.0000 O   0  0  0  0  0  0  0  0  0  0  0  0
   -1.0964   -1.8991    0.0000 O   0  0  0  0  0  0  0  0  0  0  0  0
    0.3808   -2.1595    0.0000 C   0  0  0  0  0  0  0  0  0  0  0  0
    0.6413   -3.6368    0.0000 C   0  0  0  0  0  0  0  0  0  0  0  0
    1.6798   -1.4095    0.0000 C   0  0  0  0  0  0  0  0  0  0  0  0
    2.8289   -2.3737    0.0000 O   0  0  0  0  0  0  0  0  0  0  0  0
    2.5684   -3.8509    0.0000 C   0  0  0  0  0  0  0  0  0  0  0  0
    1.1589   -4.3640    0.0000 O   0  0  0  0  0  0  0  0  0  0  0  0
    3.7175   -4.8151    0.0000 C   0  0  0  0  0  0  0  0  0  0  0  0
    3.4570   -6.2923    0.0000 C   0  0  0  0  0  0  0  0  0  0  0  0
    4.6061   -7.2565    0.0000 C   0  0  0  0  0  0  0  0  0  0  0  0
    2.0475   -6.8054    0.0000 C   0  0  0  0  0  0  0  0  0  0  0  0
  1  2  1  0
  2  3  1  0
  3  4  1  0
  4  5  1  0
  5  6  1  0
  7  6  1  6
  7  8  1  0
  8  9  2  0
  8 10  1  0
 10 11  1  0
 11 12  1  1
 11 13  1  0
 13 14  1  1
 14 15  1  0
 15 16  2  0
 15 17  1  0
 17 18  2  0
 18 19  1  0
 19 20  2  0
 20 21  1  0
 21 22  1  0
 22 23  1  0
 23 24  2  0
 21 25  2  0
 25 26  1  0
 13 27  1  0
 27 28  2  0
 27 29  1  0
 29 30  1  0
 30 31  1  6
 30 32  1  0
 32 33  1  1
 33 34  1  0
 34 35  2  0
 34 36  1  0
 36 37  1  0
 37 38  1  0
 37 39  1  0
 32  7  1  0
 25 17  1  0
M  END
>  <assay_description>  (343) 
Inhibition of human BSEP overexpressed in Sf9 cell membrane vesicles assessed as uptake of [3H]-taurocholate in presence of ATP measured after 15 to 20 mins by membrane vesicle transport assay

>  <molecule_pref_name>  (343) 
ANTIMYCIN A

>  <canonical_smiles>  (343) 
CCCCCC[C@H]1C(=O)O[C@H](C)[C@H](NC(=O)c2cccc(NC=O)c2O)C(=O)O[C@@H](C)[C@@H]1OC(=O)CC(C)C

>  <pchembl_value>  (343) 
4.22

>  <standard_type>  (343) 
IC50

>  <standard_relation>  (343) 
=

>  <standard_value>  (343) 
59600.0

>  <standard_units>  (343) 
nM

>  <target_pref_name>  (343) 
Bile salt export pump

>  <target_organism>  (343) 
Homo sapiens

$$$$
CHEMBL1381098
     RDKit          2D

 13 14  0  0  0  0  0  0  0  0999 V2000
   -4.5000   -5.1962    0.0000 S   0  0  0  0  0  0  0  0  0  0  0  0
   -3.7500   -3.8971    0.0000 C   0  0  0  0  0  0  0  0  0  0  0  0
   -3.0000   -2.5981    0.0000 N   0  0  0  0  0  0  0  0  0  0  0  0
   -1.5000   -2.5981    0.0000 C   0  0  0  0  0  0  0  0  0  0  0  0
   -0.7500   -3.8971    0.0000 C   0  0  0  0  0  0  0  0  0  0  0  0
    0.7500   -3.8971    0.0000 C   0  0  0  0  0  0  0  0  0  0  0  0
    1.5000   -2.5981    0.0000 C   0  0  0  0  0  0  0  0  0  0  0  0
    0.7500   -1.2990    0.0000 C   0  0  0  0  0  0  0  0  0  0  0  0
    1.5000    0.0000    0.0000 C   0  0  0  0  0  0  0  0  0  0  0  0
    0.7500    1.2990    0.0000 C   0  0  0  0  0  0  0  0  0  0  0  0
   -0.7500    1.2990    0.0000 C   0  0  0  0  0  0  0  0  0  0  0  0
   -1.5000    0.0000    0.0000 C   0  0  0  0  0  0  0  0  0  0  0  0
   -0.7500   -1.2990    0.0000 C   0  0  0  0  0  0  0  0  0  0  0  0
  1  2  2  0
  2  3  2  0
  3  4  1  0
  4  5  2  0
  5  6  1  0
  6  7  2  0
  7  8  1  0
  8  9  2  0
  9 10  1  0
 10 11  2  0
 11 12  1  0
 12 13  2  0
 13  4  1  0
 13  8  1  0
M  END
>  <assay_description>  (344) 
Inhibition of human BSEP overexpressed in Sf9 cell membrane vesicles assessed as uptake of [3H]-taurocholate in presence of ATP measured after 15 to 20 mins by membrane vesicle transport assay

>  <molecule_pref_name>  (344) 
1-NAPHTHYLISOTHIOCYANATE

>  <canonical_smiles>  (344) 
S=C=Nc1cccc2ccccc12

>  <pchembl_value>  (344) 
4.16

>  <standard_type>  (344) 
IC50

>  <standard_relation>  (344) 
=

>  <standard_value>  (344) 
69000.0

>  <standard_units>  (344) 
nM

>  <target_pref_name>  (344) 
Bile salt export pump

>  <target_organism>  (344) 
Homo sapiens

$$$$
CHEMBL1083385
     RDKit          2D

 26 27  0  0  0  0  0  0  0  0999 V2000
   -6.9177    4.3013    0.0000 C   0  0  0  0  0  0  0  0  0  0  0  0
   -5.4912    4.7648    0.0000 O   0  0  0  0  0  0  0  0  0  0  0  0
   -4.3764    3.7611    0.0000 C   0  0  0  0  0  0  0  0  0  0  0  0
   -4.6883    2.2939    0.0000 O   0  0  0  0  0  0  0  0  0  0  0  0
   -2.9499    4.2246    0.0000 C   0  0  0  0  0  0  0  0  0  0  0  0
   -2.6380    5.6918    0.0000 C   0  0  0  0  0  0  0  0  0  0  0  0
   -1.2114    6.1554    0.0000 C   0  0  0  0  0  0  0  0  0  0  0  0
   -0.8995    7.6226    0.0000 C   0  0  0  0  0  0  0  0  0  0  0  0
   -2.0143    8.6263    0.0000 C   0  0  0  0  0  0  0  0  0  0  0  0
   -3.4408    8.1628    0.0000 C   0  0  0  0  0  0  0  0  0  0  0  0
   -3.7527    6.6955    0.0000 C   0  0  0  0  0  0  0  0  0  0  0  0
   -5.1793    6.2320    0.0000 Cl  0  0  0  0  0  0  0  0  0  0  0  0
   -1.8351    3.2209    0.0000 N   0  0  0  0  0  0  0  0  0  0  0  0
   -0.4086    3.6844    0.0000 C   0  0  0  0  0  0  0  0  0  0  0  0
    0.7062    2.6807    0.0000 C   0  0  0  0  0  0  0  0  0  0  0  0
    0.3943    1.2135    0.0000 C   0  0  0  0  0  0  0  0  0  0  0  0
    1.2760    0.0000    0.0000 S   0  0  0  0  0  0  0  0  0  0  0  0
    0.3943   -1.2135    0.0000 C   0  0  0  0  0  0  0  0  0  0  0  0
   -1.0323   -0.7500    0.0000 C   0  0  0  0  0  0  0  0  0  0  0  0
   -1.0323    0.7500    0.0000 C   0  0  0  0  0  0  0  0  0  0  0  0
   -2.1470    1.7537    0.0000 C   0  0  0  0  0  0  0  0  0  0  0  0
    2.2760    0.0000    0.0000 O   0  0  0  0  0  0  0  0  0  0  0  0
    3.5750    0.7500    0.0000 S   0  0  0  0  0  0  0  0  0  0  0  0
    4.8741    1.5000    0.0000 O   0  0  0  0  0  0  0  0  0  0  0  0
    2.8250    2.0490    0.0000 O   0  0  0  0  0  0  0  0  0  0  0  0
    4.3250   -0.5490    0.0000 O   0  0  0  0  0  0  0  0  0  0  0  0
  1  2  1  0
  2  3  1  0
  3  4  2  0
  5  3  1  6
  5  6  1  0
  6  7  2  0
  7  8  1  0
  8  9  2  0
  9 10  1  0
 10 11  2  0
 11 12  1  0
  5 13  1  0
 13 14  1  0
 14 15  1  0
 15 16  1  0
 16 17  1  0
 17 18  1  0
 18 19  2  0
 19 20  1  0
 20 21  1  0
 22 23  2  0
 23 24  2  0
 23 25  1  0
 23 26  1  0
 11  6  1  0
 21 13  1  0
 20 16  2  0
M  END
>  <assay_description>  (345) 
Inhibition of human BSEP overexpressed in Sf9 cell membrane vesicles assessed as uptake of [3H]-taurocholate in presence of ATP measured after 15 to 20 mins by membrane vesicle transport assay

>  <molecule_pref_name>  (345) 
CLOPIDOGREL BISULFATE

>  <canonical_smiles>  (345) 
COC(=O)[C@H](c1ccccc1Cl)N1CCc2sccc2C1.O=S(=O)(O)O

>  <pchembl_value>  (345) 
4.14

>  <standard_type>  (345) 
IC50

>  <standard_relation>  (345) 
=

>  <standard_value>  (345) 
72000.0

>  <standard_units>  (345) 
nM

>  <target_pref_name>  (345) 
Bile salt export pump

>  <target_organism>  (345) 
Homo sapiens

$$$$
CHEMBL1452696
     RDKit          2D

 24 26  0  0  0  0  0  0  0  0999 V2000
    6.3579   -8.4259    0.0000 C   0  0  0  0  0  0  0  0  0  0  0  0
    6.2011   -6.9341    0.0000 C   0  0  0  0  0  0  0  0  0  0  0  0
    7.4146   -6.0524    0.0000 C   0  0  0  0  0  0  0  0  0  0  0  0
    4.8308   -6.3240    0.0000 C   0  0  0  0  0  0  0  0  0  0  0  0
    4.6740   -4.8322    0.0000 C   0  0  0  0  0  0  0  0  0  0  0  0
    3.3037   -4.2221    0.0000 C   0  0  0  0  0  0  0  0  0  0  0  0
    2.9918   -2.7549    0.0000 C   0  0  0  0  0  0  0  0  0  0  0  0
    3.9955   -1.6402    0.0000 O   0  0  0  0  0  0  0  0  0  0  0  0
    1.5000   -2.5981    0.0000 N   0  0  0  0  0  0  0  0  0  0  0  0
    0.7500   -1.2990    0.0000 C   0  0  0  0  0  0  0  0  0  0  0  0
    1.5000    0.0000    0.0000 C   0  0  0  0  0  0  0  0  0  0  0  0
    0.7500    1.2990    0.0000 C   0  0  0  0  0  0  0  0  0  0  0  0
   -0.7500    1.2990    0.0000 C   0  0  0  0  0  0  0  0  0  0  0  0
   -1.5000    0.0000    0.0000 C   0  0  0  0  0  0  0  0  0  0  0  0
   -0.7500   -1.2990    0.0000 C   0  0  0  0  0  0  0  0  0  0  0  0
    0.8899   -3.9684    0.0000 N   0  0  0  0  0  0  0  0  0  0  0  0
   -0.5773   -4.2803    0.0000 C   0  0  0  0  0  0  0  0  0  0  0  0
   -1.5810   -3.1655    0.0000 C   0  0  0  0  0  0  0  0  0  0  0  0
   -3.0482   -3.4774    0.0000 C   0  0  0  0  0  0  0  0  0  0  0  0
   -3.5118   -4.9040    0.0000 C   0  0  0  0  0  0  0  0  0  0  0  0
   -2.5081   -6.0187    0.0000 C   0  0  0  0  0  0  0  0  0  0  0  0
   -1.0409   -5.7068    0.0000 C   0  0  0  0  0  0  0  0  0  0  0  0
    2.0046   -4.9721    0.0000 C   0  0  0  0  0  0  0  0  0  0  0  0
    1.8478   -6.4639    0.0000 O   0  0  0  0  0  0  0  0  0  0  0  0
  1  2  1  0
  2  3  1  0
  2  4  2  3
  4  5  1  0
  5  6  1  0
  6  7  1  0
  7  8  2  0
  7  9  1  0
  9 10  1  0
 10 11  2  0
 11 12  1  0
 12 13  2  0
 13 14  1  0
 14 15  2  0
  9 16  1  0
 16 17  1  0
 17 18  2  0
 18 19  1  0
 19 20  2  0
 20 21  1  0
 21 22  2  0
 16 23  1  0
 23 24  2  0
 23  6  1  0
 15 10  1  0
 22 17  1  0
M  END
>  <assay_description>  (346) 
Inhibition of human BSEP overexpressed in Sf9 cell membrane vesicles assessed as uptake of [3H]-taurocholate in presence of ATP measured after 15 to 20 mins by membrane vesicle transport assay

>  <molecule_pref_name>  (346) 
FEPRAZONE

>  <canonical_smiles>  (346) 
CC(C)=CCC1C(=O)N(c2ccccc2)N(c2ccccc2)C1=O

>  <pchembl_value>  (346) 
4.13

>  <standard_type>  (346) 
IC50

>  <standard_relation>  (346) 
=

>  <standard_value>  (346) 
73900.0

>  <standard_units>  (346) 
nM

>  <target_pref_name>  (346) 
Bile salt export pump

>  <target_organism>  (346) 
Homo sapiens

$$$$
CHEMBL1536
     RDKit          2D

 29 31  0  0  0  0  0  0  0  0999 V2000
    1.5000   -5.1962    0.0000 C   0  0  0  0  0  0  0  0  0  0  0  0
    3.0000   -5.1962    0.0000 C   0  0  0  0  0  0  0  0  0  0  0  0
    3.7500   -6.4952    0.0000 C   0  0  0  0  0  0  0  0  0  0  0  0
    5.2500   -6.4952    0.0000 C   0  0  0  0  0  0  0  0  0  0  0  0
    6.0000   -5.1962    0.0000 C   0  0  0  0  0  0  0  0  0  0  0  0
    7.5000   -5.1962    0.0000 O   0  0  0  0  0  0  0  0  0  0  0  0
    5.2500   -3.8971    0.0000 C   0  0  0  0  0  0  0  0  0  0  0  0
    3.7500   -3.8971    0.0000 C   0  0  0  0  0  0  0  0  0  0  0  0
    3.0000   -2.5981    0.0000 C   0  0  0  0  0  0  0  0  0  0  0  0
    1.5000   -2.5981    0.0000 C   0  0  0  0  0  0  0  0  0  0  0  0
    0.7500   -1.2990    0.0000 C   0  0  0  0  0  0  0  0  0  0  0  0
    1.5000    0.0000    0.0000 C   0  0  0  0  0  0  0  0  0  0  0  0
    0.7500    1.2990    0.0000 C   0  0  0  0  0  0  0  0  0  0  0  0
   -0.7500    1.2990    0.0000 C   0  0  0  0  0  0  0  0  0  0  0  0
   -1.5000    0.0000    0.0000 C   0  0  0  0  0  0  0  0  0  0  0  0
   -2.3817    1.2135    0.0000 C   0  0  0  0  0  0  0  0  0  0  0  0
   -0.7500   -1.2990    0.0000 C   0  0  0  0  0  0  0  0  0  0  0  0
   -1.7537   -2.4138    0.0000 C   0  0  0  0  0  0  0  0  0  0  0  0
   -3.1240   -1.8037    0.0000 C   0  0  0  0  0  0  0  0  0  0  0  0
   -2.9672   -0.3119    0.0000 C   0  0  0  0  0  0  0  0  0  0  0  0
   -4.0819    0.6918    0.0000 C   0  0  0  0  0  0  0  0  0  0  0  0
   -5.5085    0.2283    0.0000 C   0  0  0  0  0  0  0  0  0  0  0  0
   -3.7701    2.1590    0.0000 C   0  0  0  0  0  0  0  0  0  0  0  0
   -4.8848    3.1627    0.0000 C   0  0  0  0  0  0  0  0  0  0  0  0
   -4.5729    4.6300    0.0000 C   0  0  0  0  0  0  0  0  0  0  0  0
   -5.6876    5.6337    0.0000 C   0  0  0  0  0  0  0  0  0  0  0  0
   -3.1463    5.0935    0.0000 C   0  0  0  0  0  0  0  0  0  0  0  0
   -2.8345    6.5607    0.0000 C   0  0  0  0  0  0  0  0  0  0  0  0
   -2.0316    4.0898    0.0000 C   0  0  0  0  0  0  0  0  0  0  0  0
  1  2  2  0
  2  3  1  0
  3  4  1  0
  4  5  1  0
  5  6  1  1
  5  7  1  0
  7  8  1  0
  8  9  2  0
  9 10  1  0
 10 11  2  0
 11 12  1  0
 12 13  1  0
 13 14  1  0
 14 15  1  0
 15 16  1  6
 15 17  1  0
 17 18  1  6
 18 19  1  0
 20 19  1  6
 20 21  1  0
 21 22  1  6
 21 23  1  0
 23 24  2  0
 24 25  1  0
 25 26  1  6
 25 27  1  0
 27 28  1  0
 27 29  1  0
  8  2  1  0
 17 11  1  0
 20 15  1  0
M  END
>  <assay_description>  (347) 
Inhibition of human BSEP overexpressed in Sf9 cell membrane vesicles assessed as uptake of [3H]-taurocholate in presence of ATP measured after 15 to 20 mins by membrane vesicle transport assay

>  <molecule_pref_name>  (347) 
ERGOCALCIFEROL

>  <canonical_smiles>  (347) 
C=C1CC[C@H](O)C/C1=C/C=C1\CCC[C@@]2(C)[C@H]1CC[C@@H]2[C@H](C)/C=C/[C@H](C)C(C)C

>  <pchembl_value>  (347) 
4.12

>  <standard_type>  (347) 
IC50

>  <standard_relation>  (347) 
=

>  <standard_value>  (347) 
75800.0

>  <standard_units>  (347) 
nM

>  <target_pref_name>  (347) 
Bile salt export pump

>  <target_organism>  (347) 
Homo sapiens

$$$$
CHEMBL599
     RDKit          2D

 23 25  0  0  0  0  0  0  0  0999 V2000
    1.8478  -11.6600    0.0000 C   0  0  0  0  0  0  0  0  0  0  0  0
    2.0046  -10.1682    0.0000 C   0  0  0  0  0  0  0  0  0  0  0  0
    3.3037   -9.4182    0.0000 C   0  0  0  0  0  0  0  0  0  0  0  0
    2.9918   -7.9510    0.0000 N   0  0  0  0  0  0  0  0  0  0  0  0
    1.5000   -7.7942    0.0000 C   0  0  0  0  0  0  0  0  0  0  0  0
    0.7500   -6.4952    0.0000 N   0  0  0  0  0  0  0  0  0  0  0  0
    1.5000   -5.1962    0.0000 C   0  0  0  0  0  0  0  0  0  0  0  0
    3.0000   -5.1962    0.0000 O   0  0  0  0  0  0  0  0  0  0  0  0
    0.7500   -3.8971    0.0000 C   0  0  0  0  0  0  0  0  0  0  0  0
    1.5000   -2.5981    0.0000 C   0  0  0  0  0  0  0  0  0  0  0  0
    3.0000   -2.5981    0.0000 O   0  0  0  0  0  0  0  0  0  0  0  0
    0.7500   -1.2990    0.0000 C   0  0  0  0  0  0  0  0  0  0  0  0
    1.5000    0.0000    0.0000 C   0  0  0  0  0  0  0  0  0  0  0  0
    0.7500    1.2990    0.0000 C   0  0  0  0  0  0  0  0  0  0  0  0
   -0.7500    1.2990    0.0000 C   0  0  0  0  0  0  0  0  0  0  0  0
   -1.5000    0.0000    0.0000 C   0  0  0  0  0  0  0  0  0  0  0  0
   -0.7500   -1.2990    0.0000 C   0  0  0  0  0  0  0  0  0  0  0  0
   -1.5000   -2.5981    0.0000 S   0  0  0  0  0  0  0  0  0  0  0  0
   -2.6491   -3.5623    0.0000 O   0  0  0  0  0  0  0  0  0  0  0  0
   -2.6491   -1.6339    0.0000 O   0  0  0  0  0  0  0  0  0  0  0  0
   -0.7500   -3.8971    0.0000 N   0  0  0  0  0  0  0  0  0  0  0  0
   -1.5000   -5.1962    0.0000 C   0  0  0  0  0  0  0  0  0  0  0  0
    0.8899   -9.1645    0.0000 S   0  0  0  0  0  0  0  0  0  0  0  0
  1  2  1  0
  2  3  2  0
  3  4  1  0
  4  5  2  0
  5  6  1  0
  6  7  1  0
  7  8  2  0
  7  9  1  0
  9 10  2  0
 10 11  1  0
 10 12  1  0
 12 13  2  0
 13 14  1  0
 14 15  2  0
 15 16  1  0
 16 17  2  0
 17 18  1  0
 18 19  2  0
 18 20  2  0
 18 21  1  0
 21 22  1  0
  5 23  1  0
 23  2  1  0
 21  9  1  0
 17 12  1  0
M  END
>  <assay_description>  (348) 
Inhibition of human BSEP overexpressed in Sf9 cell membrane vesicles assessed as uptake of [3H]-taurocholate in presence of ATP measured after 15 to 20 mins by membrane vesicle transport assay

>  <molecule_pref_name>  (348) 
MELOXICAM

>  <canonical_smiles>  (348) 
Cc1cnc(NC(=O)C2=C(O)c3ccccc3S(=O)(=O)N2C)s1

>  <pchembl_value>  (348) 
4.11

>  <standard_type>  (348) 
IC50

>  <standard_relation>  (348) 
=

>  <standard_value>  (348) 
77500.0

>  <standard_units>  (348) 
nM

>  <target_pref_name>  (348) 
Bile salt export pump

>  <target_organism>  (348) 
Homo sapiens

$$$$
CHEMBL12713
     RDKit          2D

 31 35  0  0  0  0  0  0  0  0999 V2000
  -10.6747   -1.6579    0.0000 O   0  0  0  0  0  0  0  0  0  0  0  0
  -10.6747   -3.1579    0.0000 C   0  0  0  0  0  0  0  0  0  0  0  0
  -11.8882   -4.0396    0.0000 N   0  0  0  0  0  0  0  0  0  0  0  0
  -11.4247   -5.4661    0.0000 C   0  0  0  0  0  0  0  0  0  0  0  0
   -9.9247   -5.4661    0.0000 C   0  0  0  0  0  0  0  0  0  0  0  0
   -9.4612   -4.0396    0.0000 N   0  0  0  0  0  0  0  0  0  0  0  0
   -8.0346   -3.5760    0.0000 C   0  0  0  0  0  0  0  0  0  0  0  0
   -6.9199   -4.5797    0.0000 C   0  0  0  0  0  0  0  0  0  0  0  0
   -5.4933   -4.1162    0.0000 N   0  0  0  0  0  0  0  0  0  0  0  0
   -4.3786   -5.1199    0.0000 C   0  0  0  0  0  0  0  0  0  0  0  0
   -2.9520   -4.6564    0.0000 C   0  0  0  0  0  0  0  0  0  0  0  0
   -2.6401   -3.1891    0.0000 C   0  0  0  0  0  0  0  0  0  0  0  0
   -1.2135   -2.7256    0.0000 C   0  0  0  0  0  0  0  0  0  0  0  0
   -0.0000   -3.6073    0.0000 C   0  0  0  0  0  0  0  0  0  0  0  0
    1.2135   -2.7256    0.0000 N   0  0  0  0  0  0  0  0  0  0  0  0
    2.6401   -3.1891    0.0000 C   0  0  0  0  0  0  0  0  0  0  0  0
    2.9520   -4.6564    0.0000 C   0  0  0  0  0  0  0  0  0  0  0  0
    4.3786   -5.1199    0.0000 C   0  0  0  0  0  0  0  0  0  0  0  0
    5.4933   -4.1162    0.0000 C   0  0  0  0  0  0  0  0  0  0  0  0
    6.9199   -4.5797    0.0000 F   0  0  0  0  0  0  0  0  0  0  0  0
    5.1814   -2.6490    0.0000 C   0  0  0  0  0  0  0  0  0  0  0  0
    3.7548   -2.1855    0.0000 C   0  0  0  0  0  0  0  0  0  0  0  0
    0.7500   -1.2990    0.0000 C   0  0  0  0  0  0  0  0  0  0  0  0
    1.5000    0.0000    0.0000 C   0  0  0  0  0  0  0  0  0  0  0  0
    0.7500    1.2990    0.0000 C   0  0  0  0  0  0  0  0  0  0  0  0
   -0.7500    1.2990    0.0000 C   0  0  0  0  0  0  0  0  0  0  0  0
   -1.5000    2.5981    0.0000 Cl  0  0  0  0  0  0  0  0  0  0  0  0
   -1.5000    0.0000    0.0000 C   0  0  0  0  0  0  0  0  0  0  0  0
   -0.7500   -1.2990    0.0000 C   0  0  0  0  0  0  0  0  0  0  0  0
   -3.7548   -2.1855    0.0000 C   0  0  0  0  0  0  0  0  0  0  0  0
   -5.1814   -2.6490    0.0000 C   0  0  0  0  0  0  0  0  0  0  0  0
  1  2  2  0
  2  3  1  0
  3  4  1  0
  4  5  1  0
  5  6  1  0
  6  7  1  0
  7  8  1  0
  8  9  1  0
  9 10  1  0
 10 11  1  0
 11 12  1  0
 12 13  1  0
 13 14  2  0
 14 15  1  0
 15 16  1  0
 16 17  2  0
 17 18  1  0
 18 19  2  0
 19 20  1  0
 19 21  1  0
 21 22  2  0
 15 23  1  0
 23 24  2  0
 24 25  1  0
 25 26  2  0
 26 27  1  0
 26 28  1  0
 28 29  2  0
 12 30  1  0
 30 31  1  0
  6  2  1  0
 31  9  1  0
 29 13  1  0
 22 16  1  0
 29 23  1  0
M  END
>  <assay_description>  (349) 
Inhibition of human BSEP overexpressed in Sf9 cell membrane vesicles assessed as uptake of [3H]-taurocholate in presence of ATP measured after 15 to 20 mins by membrane vesicle transport assay

>  <molecule_pref_name>  (349) 
SERTINDOLE

>  <canonical_smiles>  (349) 
O=C1NCCN1CCN1CCC(c2cn(-c3ccc(F)cc3)c3ccc(Cl)cc23)CC1

>  <pchembl_value>  (349) 
4.08

>  <standard_type>  (349) 
IC50

>  <standard_relation>  (349) 
=

>  <standard_value>  (349) 
82700.0

>  <standard_units>  (349) 
nM

>  <target_pref_name>  (349) 
Bile salt export pump

>  <target_organism>  (349) 
Homo sapiens

$$$$
CHEMBL1200374
     RDKit          2D

 22 25  0  0  0  0  0  0  0  0999 V2000
   -3.0000   -2.5981    0.0000 C   0  0  0  0  0  0  0  0  0  0  0  0
   -1.5000   -2.5981    0.0000 C   0  0  0  0  0  0  0  0  0  0  0  0
   -0.7500   -3.8971    0.0000 C   0  0  0  0  0  0  0  0  0  0  0  0
    0.7500   -3.8971    0.0000 C   0  0  0  0  0  0  0  0  0  0  0  0
    1.5000   -2.5981    0.0000 C   0  0  0  0  0  0  0  0  0  0  0  0
    3.0000   -2.5981    0.0000 C   0  0  0  0  0  0  0  0  0  0  0  0
    3.7500   -3.8971    0.0000 C   0  0  0  0  0  0  0  0  0  0  0  0
    3.0000   -5.1962    0.0000 C   0  0  0  0  0  0  0  0  0  0  0  0
    4.4918   -5.3529    0.0000 C   0  0  0  0  0  0  0  0  0  0  0  0
    3.4635   -6.6227    0.0000 C   0  0  0  0  0  0  0  0  0  0  0  0
    4.8901   -7.0863    0.0000 O   0  0  0  0  0  0  0  0  0  0  0  0
    2.2500   -7.5044    0.0000 C   0  0  0  0  0  0  0  0  0  0  0  0
    1.0365   -6.6227    0.0000 C   0  0  0  0  0  0  0  0  0  0  0  0
    1.5000   -5.1962    0.0000 C   0  0  0  0  0  0  0  0  0  0  0  0
    0.7500   -1.2990    0.0000 C   0  0  0  0  0  0  0  0  0  0  0  0
    2.2500   -1.2990    0.0000 C   0  0  0  0  0  0  0  0  0  0  0  0
    1.5000    0.0000    0.0000 C   0  0  0  0  0  0  0  0  0  0  0  0
    0.7500    1.2990    0.0000 C   0  0  0  0  0  0  0  0  0  0  0  0
   -0.7500    1.2990    0.0000 C   0  0  0  0  0  0  0  0  0  0  0  0
   -1.5000    2.5981    0.0000 O   0  0  0  0  0  0  0  0  0  0  0  0
   -1.5000    0.0000    0.0000 C   0  0  0  0  0  0  0  0  0  0  0  0
   -0.7500   -1.2990    0.0000 C   0  0  0  0  0  0  0  0  0  0  0  0
  1  2  2  0
  2  3  1  0
  4  3  1  6
  4  5  1  0
  5  6  1  1
  6  7  1  0
  7  8  1  0
  8  9  1  1
  8 10  1  0
 10 11  2  0
 10 12  1  0
 12 13  1  0
 14 13  1  1
  5 15  1  0
 15 16  1  1
 15 17  1  0
 17 18  2  0
 18 19  1  0
 19 20  2  0
 19 21  1  0
 21 22  2  0
 22  2  1  0
 14  4  1  0
 22 15  1  0
 14  8  1  0
M  END
>  <assay_description>  (350) 
Inhibition of human BSEP overexpressed in Sf9 cell membrane vesicles assessed as uptake of [3H]-taurocholate in presence of ATP measured after 15 to 20 mins by membrane vesicle transport assay

>  <molecule_pref_name>  (350) 
EXEMESTANE

>  <canonical_smiles>  (350) 
C=C1C[C@@H]2[C@H](CC[C@]3(C)C(=O)CC[C@@H]23)[C@@]2(C)C=CC(=O)C=C12

>  <pchembl_value>  (350) 
4.05

>  <standard_type>  (350) 
IC50

>  <standard_relation>  (350) 
=

>  <standard_value>  (350) 
90000.0

>  <standard_units>  (350) 
nM

>  <target_pref_name>  (350) 
Bile salt export pump

>  <target_organism>  (350) 
Homo sapiens

$$$$
CHEMBL1592
     RDKit          2D

 32 34  0  0  0  0  0  0  0  0999 V2000
    9.7500   -6.4952    0.0000 C   0  0  0  0  0  0  0  0  0  0  0  0
    8.2500   -6.4952    0.0000 C   0  0  0  0  0  0  0  0  0  0  0  0
    7.5000   -5.1962    0.0000 O   0  0  0  0  0  0  0  0  0  0  0  0
    6.0000   -5.1962    0.0000 C   0  0  0  0  0  0  0  0  0  0  0  0
    5.2500   -6.4952    0.0000 O   0  0  0  0  0  0  0  0  0  0  0  0
    5.2500   -3.8971    0.0000 C   0  0  0  0  0  0  0  0  0  0  0  0
    6.0000   -2.5981    0.0000 C   0  0  0  0  0  0  0  0  0  0  0  0
    7.5000   -2.5981    0.0000 C   0  0  0  0  0  0  0  0  0  0  0  0
    8.2500   -1.2990    0.0000 C   0  0  0  0  0  0  0  0  0  0  0  0
    9.7500   -1.2990    0.0000 C   0  0  0  0  0  0  0  0  0  0  0  0
   10.5000   -0.0000    0.0000 C   0  0  0  0  0  0  0  0  0  0  0  0
    9.7500    1.2990    0.0000 C   0  0  0  0  0  0  0  0  0  0  0  0
    8.2500    1.2990    0.0000 C   0  0  0  0  0  0  0  0  0  0  0  0
    7.5000   -0.0000    0.0000 C   0  0  0  0  0  0  0  0  0  0  0  0
    3.7500   -3.8971    0.0000 N   0  0  0  0  0  0  0  0  0  0  0  0
    3.0000   -5.1962    0.0000 C   0  0  0  0  0  0  0  0  0  0  0  0
    3.7500   -6.4952    0.0000 C   0  0  0  0  0  0  0  0  0  0  0  0
    1.5000   -5.1962    0.0000 C   0  0  0  0  0  0  0  0  0  0  0  0
    0.7500   -6.4952    0.0000 O   0  0  0  0  0  0  0  0  0  0  0  0
    0.7500   -3.8971    0.0000 N   0  0  0  0  0  0  0  0  0  0  0  0
    1.5000   -2.5981    0.0000 C   0  0  0  0  0  0  0  0  0  0  0  0
    0.7500   -1.2990    0.0000 C   0  0  0  0  0  0  0  0  0  0  0  0
    1.5000    0.0000    0.0000 C   0  0  0  0  0  0  0  0  0  0  0  0
    0.7500    1.2990    0.0000 C   0  0  0  0  0  0  0  0  0  0  0  0
   -0.7500    1.2990    0.0000 C   0  0  0  0  0  0  0  0  0  0  0  0
   -1.5000    0.0000    0.0000 C   0  0  0  0  0  0  0  0  0  0  0  0
   -0.7500   -1.2990    0.0000 C   0  0  0  0  0  0  0  0  0  0  0  0
   -1.5000   -2.5981    0.0000 C   0  0  0  0  0  0  0  0  0  0  0  0
   -0.7500   -3.8971    0.0000 C   0  0  0  0  0  0  0  0  0  0  0  0
   -1.5000   -5.1962    0.0000 C   0  0  0  0  0  0  0  0  0  0  0  0
   -0.7500   -6.4952    0.0000 O   0  0  0  0  0  0  0  0  0  0  0  0
   -3.0000   -5.1962    0.0000 O   0  0  0  0  0  0  0  0  0  0  0  0
  1  2  1  0
  2  3  1  0
  3  4  1  0
  4  5  2  0
  4  6  1  0
  6  7  1  1
  7  8  1  0
  8  9  1  0
  9 10  2  0
 10 11  1  0
 11 12  2  0
 12 13  1  0
 13 14  2  0
  6 15  1  0
 15 16  1  0
 16 17  1  1
 16 18  1  0
 18 19  2  0
 18 20  1  0
 20 21  1  0
 21 22  1  0
 22 23  2  0
 23 24  1  0
 24 25  2  0
 25 26  1  0
 26 27  2  0
 27 28  1  0
 28 29  1  0
 29 30  1  6
 30 31  2  0
 30 32  1  0
 14  9  1  0
 29 20  1  0
 27 22  1  0
M  END
>  <assay_description>  (351) 
Inhibition of human BSEP overexpressed in Sf9 cell membrane vesicles assessed as uptake of [3H]-taurocholate in presence of ATP measured after 15 to 20 mins by membrane vesicle transport assay

>  <molecule_pref_name>  (351) 
QUINAPRIL

>  <canonical_smiles>  (351) 
CCOC(=O)[C@H](CCc1ccccc1)N[C@@H](C)C(=O)N1Cc2ccccc2C[C@H]1C(=O)O

>  <pchembl_value>  (351) 
4.03

>  <standard_type>  (351) 
IC50

>  <standard_relation>  (351) 
=

>  <standard_value>  (351) 
94000.0

>  <standard_units>  (351) 
nM

>  <target_pref_name>  (351) 
Bile salt export pump

>  <target_organism>  (351) 
Homo sapiens

$$$$
CHEMBL295416
     RDKit          2D

 21 22  0  0  0  0  0  0  0  0999 V2000
    3.0000    0.0000    0.0000 C   0  0  0  0  0  0  0  0  0  0  0  0
    1.5000    0.0000    0.0000 C   0  0  0  0  0  0  0  0  0  0  0  0
    0.7500   -1.2990    0.0000 C   0  0  0  0  0  0  0  0  0  0  0  0
   -0.7500   -1.2990    0.0000 C   0  0  0  0  0  0  0  0  0  0  0  0
   -1.5000    0.0000    0.0000 C   0  0  0  0  0  0  0  0  0  0  0  0
   -0.7500    1.2990    0.0000 C   0  0  0  0  0  0  0  0  0  0  0  0
   -1.5000    2.5981    0.0000 N   0  0  0  0  0  0  0  0  0  0  0  0
   -3.0000    2.5981    0.0000 C   0  0  0  0  0  0  0  0  0  0  0  0
   -3.7500    3.8971    0.0000 C   0  0  0  0  0  0  0  0  0  0  0  0
   -5.2500    3.8971    0.0000 C   0  0  0  0  0  0  0  0  0  0  0  0
   -6.0000    5.1962    0.0000 Cl  0  0  0  0  0  0  0  0  0  0  0  0
   -6.0000    2.5981    0.0000 N   0  0  0  0  0  0  0  0  0  0  0  0
   -5.2500    1.2990    0.0000 C   0  0  0  0  0  0  0  0  0  0  0  0
   -6.0000   -0.0000    0.0000 S   0  0  0  0  0  0  0  0  0  0  0  0
   -7.5000   -0.0000    0.0000 C   0  0  0  0  0  0  0  0  0  0  0  0
   -8.2500   -1.2990    0.0000 C   0  0  0  0  0  0  0  0  0  0  0  0
   -7.5000   -2.5981    0.0000 O   0  0  0  0  0  0  0  0  0  0  0  0
   -9.7500   -1.2990    0.0000 O   0  0  0  0  0  0  0  0  0  0  0  0
   -3.7500    1.2990    0.0000 N   0  0  0  0  0  0  0  0  0  0  0  0
    0.7500    1.2990    0.0000 C   0  0  0  0  0  0  0  0  0  0  0  0
    1.5000    2.5981    0.0000 C   0  0  0  0  0  0  0  0  0  0  0  0
  1  2  1  0
  2  3  2  0
  3  4  1  0
  4  5  2  0
  5  6  1  0
  6  7  1  0
  7  8  1  0
  8  9  2  0
  9 10  1  0
 10 11  1  0
 10 12  2  0
 12 13  1  0
 13 14  1  0
 14 15  1  0
 15 16  1  0
 16 17  2  0
 16 18  1  0
 13 19  2  0
  6 20  2  0
 20 21  1  0
 20  2  1  0
 19  8  1  0
M  END
>  <assay_description>  (352) 
Inhibition of human BSEP overexpressed in Sf9 cell membrane vesicles assessed as uptake of [3H]-taurocholate in presence of ATP measured after 15 to 20 mins by membrane vesicle transport assay

>  <molecule_pref_name>  (352) 
PIRINIXIC ACID

>  <canonical_smiles>  (352) 
Cc1cccc(Nc2cc(Cl)nc(SCC(=O)O)n2)c1C

>  <pchembl_value>  (352) 
4.00

>  <standard_type>  (352) 
IC50

>  <standard_relation>  (352) 
=

>  <standard_value>  (352) 
99000.0

>  <standard_units>  (352) 
nM

>  <target_pref_name>  (352) 
Bile salt export pump

>  <target_organism>  (352) 
Homo sapiens

$$$$
CHEMBL589973
     RDKit          2D

 38 40  0  0  0  0  0  0  0  0999 V2000
    8.2500   -3.8971    0.0000 C   0  0  0  0  0  0  0  0  0  0  0  0
    7.5000   -2.5981    0.0000 C   0  0  0  0  0  0  0  0  0  0  0  0
    6.0000   -2.5981    0.0000 C   0  0  0  0  0  0  0  0  0  0  0  0
    5.2500   -1.2990    0.0000 C   0  0  0  0  0  0  0  0  0  0  0  0
    3.7500   -1.2990    0.0000 N   0  0  0  0  0  0  0  0  0  0  0  0
    3.0000    0.0000    0.0000 C   0  0  0  0  0  0  0  0  0  0  0  0
    3.7500    1.2990    0.0000 O   0  0  0  0  0  0  0  0  0  0  0  0
    1.5000    0.0000    0.0000 C   0  0  0  0  0  0  0  0  0  0  0  0
    0.7500   -1.2990    0.0000 C   0  0  0  0  0  0  0  0  0  0  0  0
   -0.7500   -1.2990    0.0000 C   0  0  0  0  0  0  0  0  0  0  0  0
   -1.5000    0.0000    0.0000 C   0  0  0  0  0  0  0  0  0  0  0  0
   -3.0000    0.0000    0.0000 O   0  0  0  0  0  0  0  0  0  0  0  0
   -3.7500   -1.2990    0.0000 C   0  0  0  0  0  0  0  0  0  0  0  0
   -5.2500   -1.2990    0.0000 C   0  0  0  0  0  0  0  0  0  0  0  0
   -6.0000   -2.5981    0.0000 C   0  0  0  0  0  0  0  0  0  0  0  0
   -5.2500   -3.8971    0.0000 C   0  0  0  0  0  0  0  0  0  0  0  0
   -6.0000   -5.1962    0.0000 C   0  0  0  0  0  0  0  0  0  0  0  0
   -7.5000   -5.1962    0.0000 C   0  0  0  0  0  0  0  0  0  0  0  0
   -8.2500   -3.8971    0.0000 O   0  0  0  0  0  0  0  0  0  0  0  0
   -8.2500   -6.4952    0.0000 O   0  0  0  0  0  0  0  0  0  0  0  0
   -3.7500   -3.8971    0.0000 C   0  0  0  0  0  0  0  0  0  0  0  0
   -3.0000   -2.5981    0.0000 C   0  0  0  0  0  0  0  0  0  0  0  0
   -1.5000   -2.5981    0.0000 O   0  0  0  0  0  0  0  0  0  0  0  0
   -0.7500   -3.8971    0.0000 C   0  0  0  0  0  0  0  0  0  0  0  0
   -0.7500    1.2990    0.0000 C   0  0  0  0  0  0  0  0  0  0  0  0
   -1.5000    2.5981    0.0000 N   0  0  0  0  0  0  0  0  0  0  0  0
   -0.7500    3.8971    0.0000 S   0  0  0  0  0  0  0  0  0  0  0  0
    0.5490    3.1471    0.0000 O   0  0  0  0  0  0  0  0  0  0  0  0
   -2.0490    4.6471    0.0000 O   0  0  0  0  0  0  0  0  0  0  0  0
    0.0000    5.1962    0.0000 C   0  0  0  0  0  0  0  0  0  0  0  0
    1.5000    5.1962    0.0000 C   0  0  0  0  0  0  0  0  0  0  0  0
    2.2500    6.4952    0.0000 C   0  0  0  0  0  0  0  0  0  0  0  0
    1.5000    7.7942    0.0000 C   0  0  0  0  0  0  0  0  0  0  0  0
    2.2500    9.0933    0.0000 Cl  0  0  0  0  0  0  0  0  0  0  0  0
    0.0000    7.7942    0.0000 C   0  0  0  0  0  0  0  0  0  0  0  0
   -0.7500    6.4952    0.0000 C   0  0  0  0  0  0  0  0  0  0  0  0
   -2.2500    6.4952    0.0000 Cl  0  0  0  0  0  0  0  0  0  0  0  0
    0.7500    1.2990    0.0000 C   0  0  0  0  0  0  0  0  0  0  0  0
  1  2  1  0
  2  3  1  0
  3  4  1  0
  4  5  1  0
  5  6  1  0
  6  7  2  0
  6  8  1  0
  8  9  2  0
  9 10  1  0
 10 11  2  0
 11 12  1  0
 12 13  1  0
 13 14  2  0
 14 15  1  0
 15 16  2  0
 16 17  1  0
 17 18  1  0
 18 19  2  0
 18 20  1  0
 16 21  1  0
 21 22  2  0
 22 23  1  0
 23 24  1  0
 11 25  1  0
 25 26  1  0
 26 27  1  0
 27 28  2  0
 27 29  2  0
 27 30  1  0
 30 31  2  0
 31 32  1  0
 32 33  2  0
 33 34  1  0
 33 35  1  0
 35 36  2  0
 36 37  1  0
 25 38  2  0
 38  8  1  0
 22 13  1  0
 36 30  1  0
M  END
>  <assay_description>  (353) 
Inhibition of human BSEP overexpressed in Sf9 cell membrane vesicles assessed as uptake of [3H]-taurocholate in presence of ATP measured after 15 to 20 mins by membrane vesicle transport assay

>  <molecule_pref_name>  (353) 
None

>  <canonical_smiles>  (353) 
CCCCNC(=O)c1ccc(Oc2ccc(CC(=O)O)cc2OC)c(NS(=O)(=O)c2ccc(Cl)cc2Cl)c1

>  <pchembl_value>  (353) 
4.94

>  <standard_type>  (353) 
IC50

>  <standard_relation>  (353) 
=

>  <standard_value>  (353) 
11500.0

>  <standard_units>  (353) 
nM

>  <target_pref_name>  (353) 
Bile salt export pump

>  <target_organism>  (353) 
Homo sapiens

$$$$
CHEMBL4159416
     RDKit          2D

 35 38  0  0  0  0  0  0  0  0999 V2000
    8.2500   -9.0933    0.0000 C   0  0  0  0  0  0  0  0  0  0  0  0
    7.5000   -7.7942    0.0000 O   0  0  0  0  0  0  0  0  0  0  0  0
    6.0000   -7.7942    0.0000 C   0  0  0  0  0  0  0  0  0  0  0  0
    5.2500   -9.0933    0.0000 C   0  0  0  0  0  0  0  0  0  0  0  0
    3.7500   -9.0933    0.0000 C   0  0  0  0  0  0  0  0  0  0  0  0
    3.0000   -7.7942    0.0000 C   0  0  0  0  0  0  0  0  0  0  0  0
    1.5000   -7.7942    0.0000 F   0  0  0  0  0  0  0  0  0  0  0  0
    3.7500   -6.4952    0.0000 C   0  0  0  0  0  0  0  0  0  0  0  0
    3.0000   -5.1962    0.0000 C   0  0  0  0  0  0  0  0  0  0  0  0
    3.7500   -3.8971    0.0000 C   0  0  0  0  0  0  0  0  0  0  0  0
    3.0000   -2.5981    0.0000 C   0  0  0  0  0  0  0  0  0  0  0  0
    1.5000   -2.5981    0.0000 C   0  0  0  0  0  0  0  0  0  0  0  0
    0.7500   -1.2990    0.0000 C   0  0  0  0  0  0  0  0  0  0  0  0
    1.5000    0.0000    0.0000 C   0  0  0  0  0  0  0  0  0  0  0  0
    0.7500    1.2990    0.0000 C   0  0  0  0  0  0  0  0  0  0  0  0
   -0.7500    1.2990    0.0000 C   0  0  0  0  0  0  0  0  0  0  0  0
   -1.5000    2.5981    0.0000 C   0  0  0  0  0  0  0  0  0  0  0  0
   -3.0000    2.5981    0.0000 C   0  0  0  0  0  0  0  0  0  0  0  0
   -3.7500    1.2990    0.0000 C   0  0  0  0  0  0  0  0  0  0  0  0
   -5.2500    1.2990    0.0000 C   0  0  0  0  0  0  0  0  0  0  0  0
   -6.0000    2.5981    0.0000 C   0  0  0  0  0  0  0  0  0  0  0  0
   -7.2990    3.3481    0.0000 C   0  0  0  0  0  0  0  0  0  0  0  0
   -6.0000    4.0981    0.0000 C   0  0  0  0  0  0  0  0  0  0  0  0
   -6.0000    0.0000    0.0000 C   0  0  0  0  0  0  0  0  0  0  0  0
   -7.5000    0.0000    0.0000 C   0  0  0  0  0  0  0  0  0  0  0  0
   -5.2500   -1.2990    0.0000 C   0  0  0  0  0  0  0  0  0  0  0  0
   -3.7500   -1.2990    0.0000 O   0  0  0  0  0  0  0  0  0  0  0  0
   -6.0000   -2.5981    0.0000 O   0  0  0  0  0  1  0  0  0  0  0  0
   -3.0000    0.0000    0.0000 C   0  0  0  0  0  0  0  0  0  0  0  0
   -1.5000    0.0000    0.0000 C   0  0  0  0  0  0  0  0  0  0  0  0
   -0.7500   -1.2990    0.0000 O   0  0  0  0  0  0  0  0  0  0  0  0
    0.7500   -3.8971    0.0000 C   0  0  0  0  0  0  0  0  0  0  0  0
    1.5000   -5.1962    0.0000 C   0  0  0  0  0  0  0  0  0  0  0  0
    5.2500   -6.4952    0.0000 C   0  0  0  0  0  0  0  0  0  0  0  0
    0.0000    5.0981    0.0000 Na  0  0  0  0  0 15  0  0  0  0  0  0
  1  2  1  0
  2  3  1  0
  3  4  2  0
  4  5  1  0
  5  6  2  0
  6  7  1  0
  6  8  1  0
  8  9  1  0
  9 10  2  0
 10 11  1  0
 11 12  2  0
 12 13  1  0
 13 14  1  0
 14 15  1  0
 15 16  1  0
 16 17  2  0
 17 18  1  0
 18 19  2  0
 20 19  1  1
 20 21  1  0
 21 22  1  0
 22 23  1  0
 20 24  1  0
 24 25  1  1
 24 26  1  0
 26 27  2  0
 26 28  1  0
 19 29  1  0
 29 30  2  0
 30 31  1  0
 12 32  1  0
 32 33  2  0
  8 34  2  0
 34  3  1  0
 33  9  1  0
 31 13  1  0
 30 16  1  0
 23 21  1  0
M  CHG  2  28  -1  35   1
M  END
>  <assay_description>  (354) 
Inhibition of human BSEP expressed in baculovirus infected Sf9 insect cell membrane vesicles assessed as reduction in ATP-dependent [3H]-taurocholic acid uptake

>  <molecule_pref_name>  (354) 
None

>  <canonical_smiles>  (354) 
COc1ccc(F)c(-c2ccc(C3CCc4ccc([C@H](C5CC5)[C@H](C)C(=O)[O-])cc4O3)cc2)c1.[Na+]

>  <pchembl_value>  (354) 
5.85

>  <standard_type>  (354) 
IC50

>  <standard_relation>  (354) 
=

>  <standard_value>  (354) 
1400.0

>  <standard_units>  (354) 
nM

>  <target_pref_name>  (354) 
Bile salt export pump

>  <target_organism>  (354) 
Homo sapiens

$$$$
CHEMBL4162778
     RDKit          2D

 35 38  0  0  0  0  0  0  0  0999 V2000
    8.2500   -9.0933    0.0000 C   0  0  0  0  0  0  0  0  0  0  0  0
    7.5000   -7.7942    0.0000 O   0  0  0  0  0  0  0  0  0  0  0  0
    6.0000   -7.7942    0.0000 C   0  0  0  0  0  0  0  0  0  0  0  0
    5.2500   -9.0933    0.0000 C   0  0  0  0  0  0  0  0  0  0  0  0
    3.7500   -9.0933    0.0000 C   0  0  0  0  0  0  0  0  0  0  0  0
    3.0000   -7.7942    0.0000 C   0  0  0  0  0  0  0  0  0  0  0  0
    1.5000   -7.7942    0.0000 F   0  0  0  0  0  0  0  0  0  0  0  0
    3.7500   -6.4952    0.0000 C   0  0  0  0  0  0  0  0  0  0  0  0
    3.0000   -5.1962    0.0000 C   0  0  0  0  0  0  0  0  0  0  0  0
    3.7500   -3.8971    0.0000 C   0  0  0  0  0  0  0  0  0  0  0  0
    3.0000   -2.5981    0.0000 C   0  0  0  0  0  0  0  0  0  0  0  0
    1.5000   -2.5981    0.0000 C   0  0  0  0  0  0  0  0  0  0  0  0
    0.7500   -1.2990    0.0000 C   0  0  0  0  0  0  0  0  0  0  0  0
    1.5000    0.0000    0.0000 C   0  0  0  0  0  0  0  0  0  0  0  0
    0.7500    1.2990    0.0000 C   0  0  0  0  0  0  0  0  0  0  0  0
   -0.7500    1.2990    0.0000 C   0  0  0  0  0  0  0  0  0  0  0  0
   -1.5000    2.5981    0.0000 C   0  0  0  0  0  0  0  0  0  0  0  0
   -3.0000    2.5981    0.0000 C   0  0  0  0  0  0  0  0  0  0  0  0
   -3.7500    1.2990    0.0000 C   0  0  0  0  0  0  0  0  0  0  0  0
   -5.2500    1.2990    0.0000 C   0  0  0  0  0  0  0  0  0  0  0  0
   -6.0000    2.5981    0.0000 C   0  0  0  0  0  0  0  0  0  0  0  0
   -7.2990    3.3481    0.0000 C   0  0  0  0  0  0  0  0  0  0  0  0
   -6.0000    4.0981    0.0000 C   0  0  0  0  0  0  0  0  0  0  0  0
   -6.0000    0.0000    0.0000 C   0  0  0  0  0  0  0  0  0  0  0  0
   -7.5000    0.0000    0.0000 C   0  0  0  0  0  0  0  0  0  0  0  0
   -5.2500   -1.2990    0.0000 C   0  0  0  0  0  0  0  0  0  0  0  0
   -3.7500   -1.2990    0.0000 O   0  0  0  0  0  0  0  0  0  0  0  0
   -6.0000   -2.5981    0.0000 O   0  0  0  0  0  1  0  0  0  0  0  0
   -3.0000    0.0000    0.0000 C   0  0  0  0  0  0  0  0  0  0  0  0
   -1.5000    0.0000    0.0000 C   0  0  0  0  0  0  0  0  0  0  0  0
   -0.7500   -1.2990    0.0000 O   0  0  0  0  0  0  0  0  0  0  0  0
    0.7500   -3.8971    0.0000 N   0  0  0  0  0  0  0  0  0  0  0  0
    1.5000   -5.1962    0.0000 C   0  0  0  0  0  0  0  0  0  0  0  0
    5.2500   -6.4952    0.0000 C   0  0  0  0  0  0  0  0  0  0  0  0
    0.0000    5.0981    0.0000 Na  0  0  0  0  0 15  0  0  0  0  0  0
  1  2  1  0
  2  3  1  0
  3  4  2  0
  4  5  1  0
  5  6  2  0
  6  7  1  0
  6  8  1  0
  8  9  1  0
  9 10  2  0
 10 11  1  0
 11 12  2  0
 12 13  1  0
 13 14  1  0
 14 15  1  0
 15 16  1  0
 16 17  2  0
 17 18  1  0
 18 19  2  0
 20 19  1  1
 20 21  1  0
 21 22  1  0
 22 23  1  0
 20 24  1  0
 24 25  1  1
 24 26  1  0
 26 27  2  0
 26 28  1  0
 19 29  1  0
 29 30  2  0
 30 31  1  0
 12 32  1  0
 32 33  2  0
  8 34  2  0
 34  3  1  0
 33  9  1  0
 31 13  1  0
 30 16  1  0
 23 21  1  0
M  CHG  2  28  -1  35   1
M  END
>  <assay_description>  (355) 
Inhibition of human BSEP expressed in baculovirus infected Sf9 insect cell membrane vesicles assessed as reduction in ATP-dependent [3H]-taurocholic acid uptake

>  <molecule_pref_name>  (355) 
None

>  <canonical_smiles>  (355) 
COc1ccc(F)c(-c2ccc(C3CCc4ccc([C@H](C5CC5)[C@H](C)C(=O)[O-])cc4O3)nc2)c1.[Na+]

>  <pchembl_value>  (355) 
6.52

>  <standard_type>  (355) 
IC50

>  <standard_relation>  (355) 
=

>  <standard_value>  (355) 
300.0

>  <standard_units>  (355) 
nM

>  <target_pref_name>  (355) 
Bile salt export pump

>  <target_organism>  (355) 
Homo sapiens

$$$$
CHEMBL4165147
     RDKit          2D

 35 38  0  0  0  0  0  0  0  0999 V2000
    1.5000  -10.3923    0.0000 C   0  0  0  0  0  0  0  0  0  0  0  0
    3.0000  -10.3923    0.0000 O   0  0  0  0  0  0  0  0  0  0  0  0
    3.7500   -9.0933    0.0000 C   0  0  0  0  0  0  0  0  0  0  0  0
    3.0000   -7.7942    0.0000 C   0  0  0  0  0  0  0  0  0  0  0  0
    3.7500   -6.4952    0.0000 C   0  0  0  0  0  0  0  0  0  0  0  0
    3.0000   -5.1962    0.0000 C   0  0  0  0  0  0  0  0  0  0  0  0
    3.7500   -3.8971    0.0000 C   0  0  0  0  0  0  0  0  0  0  0  0
    3.0000   -2.5981    0.0000 C   0  0  0  0  0  0  0  0  0  0  0  0
    1.5000   -2.5981    0.0000 C   0  0  0  0  0  0  0  0  0  0  0  0
    0.7500   -1.2990    0.0000 C   0  0  0  0  0  0  0  0  0  0  0  0
    1.5000    0.0000    0.0000 C   0  0  0  0  0  0  0  0  0  0  0  0
    0.7500    1.2990    0.0000 C   0  0  0  0  0  0  0  0  0  0  0  0
   -0.7500    1.2990    0.0000 C   0  0  0  0  0  0  0  0  0  0  0  0
   -1.5000    2.5981    0.0000 C   0  0  0  0  0  0  0  0  0  0  0  0
   -3.0000    2.5981    0.0000 C   0  0  0  0  0  0  0  0  0  0  0  0
   -3.7500    1.2990    0.0000 C   0  0  0  0  0  0  0  0  0  0  0  0
   -5.2500    1.2990    0.0000 C   0  0  0  0  0  0  0  0  0  0  0  0
   -6.0000    2.5981    0.0000 C   0  0  0  0  0  0  0  0  0  0  0  0
   -7.2990    3.3481    0.0000 C   0  0  0  0  0  0  0  0  0  0  0  0
   -6.0000    4.0981    0.0000 C   0  0  0  0  0  0  0  0  0  0  0  0
   -6.0000    0.0000    0.0000 C   0  0  0  0  0  0  0  0  0  0  0  0
   -7.5000    0.0000    0.0000 C   0  0  0  0  0  0  0  0  0  0  0  0
   -5.2500   -1.2990    0.0000 C   0  0  0  0  0  0  0  0  0  0  0  0
   -3.7500   -1.2990    0.0000 O   0  0  0  0  0  0  0  0  0  0  0  0
   -6.0000   -2.5981    0.0000 O   0  0  0  0  0  1  0  0  0  0  0  0
   -3.0000    0.0000    0.0000 C   0  0  0  0  0  0  0  0  0  0  0  0
   -1.5000    0.0000    0.0000 C   0  0  0  0  0  0  0  0  0  0  0  0
   -0.7500   -1.2990    0.0000 O   0  0  0  0  0  0  0  0  0  0  0  0
    0.7500   -3.8971    0.0000 C   0  0  0  0  0  0  0  0  0  0  0  0
   -0.7500   -3.8971    0.0000 F   0  0  0  0  0  0  0  0  0  0  0  0
    1.5000   -5.1962    0.0000 C   0  0  0  0  0  0  0  0  0  0  0  0
    5.2500   -6.4952    0.0000 C   0  0  0  0  0  0  0  0  0  0  0  0
    6.0000   -7.7942    0.0000 C   0  0  0  0  0  0  0  0  0  0  0  0
    5.2500   -9.0933    0.0000 N   0  0  0  0  0  0  0  0  0  0  0  0
    7.0000    0.0000    0.0000 Na  0  0  0  0  0 15  0  0  0  0  0  0
  1  2  1  0
  2  3  1  0
  3  4  2  0
  4  5  1  0
  5  6  1  0
  6  7  2  0
  7  8  1  0
  8  9  2  0
 10  9  1  1
 10 11  1  0
 11 12  1  0
 12 13  1  0
 13 14  2  0
 14 15  1  0
 15 16  2  0
 17 16  1  1
 17 18  1  0
 18 19  1  0
 19 20  1  0
 17 21  1  0
 21 22  1  1
 21 23  1  0
 23 24  2  0
 23 25  1  0
 16 26  1  0
 26 27  2  0
 27 28  1  0
  9 29  1  0
 29 30  1  0
 29 31  2  0
  5 32  2  0
 32 33  1  0
 33 34  2  0
 34  3  1  0
 31  6  1  0
 28 10  1  0
 27 13  1  0
 20 18  1  0
M  CHG  2  25  -1  35   1
M  END
>  <assay_description>  (356) 
Inhibition of human BSEP expressed in baculovirus infected Sf9 insect cell membrane vesicles assessed as reduction in ATP-dependent [3H]-taurocholic acid uptake

>  <molecule_pref_name>  (356) 
None

>  <canonical_smiles>  (356) 
COc1cc(-c2ccc([C@@H]3CCc4ccc([C@H](C5CC5)[C@H](C)C(=O)[O-])cc4O3)c(F)c2)ccn1.[Na+]

>  <pchembl_value>  (356) 
5.46

>  <standard_type>  (356) 
IC50

>  <standard_relation>  (356) 
=

>  <standard_value>  (356) 
3500.0

>  <standard_units>  (356) 
nM

>  <target_pref_name>  (356) 
Bile salt export pump

>  <target_organism>  (356) 
Homo sapiens

$$$$
CHEMBL4168422
     RDKit          2D

 35 38  0  0  0  0  0  0  0  0999 V2000
    1.5000  -10.3923    0.0000 C   0  0  0  0  0  0  0  0  0  0  0  0
    3.0000  -10.3923    0.0000 O   0  0  0  0  0  0  0  0  0  0  0  0
    3.7500   -9.0933    0.0000 C   0  0  0  0  0  0  0  0  0  0  0  0
    3.0000   -7.7942    0.0000 C   0  0  0  0  0  0  0  0  0  0  0  0
    3.7500   -6.4952    0.0000 C   0  0  0  0  0  0  0  0  0  0  0  0
    3.0000   -5.1962    0.0000 C   0  0  0  0  0  0  0  0  0  0  0  0
    3.7500   -3.8971    0.0000 C   0  0  0  0  0  0  0  0  0  0  0  0
    3.0000   -2.5981    0.0000 C   0  0  0  0  0  0  0  0  0  0  0  0
    1.5000   -2.5981    0.0000 C   0  0  0  0  0  0  0  0  0  0  0  0
    0.7500   -1.2990    0.0000 C   0  0  0  0  0  0  0  0  0  0  0  0
    1.5000    0.0000    0.0000 C   0  0  0  0  0  0  0  0  0  0  0  0
    0.7500    1.2990    0.0000 C   0  0  0  0  0  0  0  0  0  0  0  0
   -0.7500    1.2990    0.0000 C   0  0  0  0  0  0  0  0  0  0  0  0
   -1.5000    2.5981    0.0000 C   0  0  0  0  0  0  0  0  0  0  0  0
   -3.0000    2.5981    0.0000 C   0  0  0  0  0  0  0  0  0  0  0  0
   -3.7500    1.2990    0.0000 C   0  0  0  0  0  0  0  0  0  0  0  0
   -5.2500    1.2990    0.0000 C   0  0  0  0  0  0  0  0  0  0  0  0
   -6.0000    2.5981    0.0000 C   0  0  0  0  0  0  0  0  0  0  0  0
   -7.2990    3.3481    0.0000 C   0  0  0  0  0  0  0  0  0  0  0  0
   -6.0000    4.0981    0.0000 C   0  0  0  0  0  0  0  0  0  0  0  0
   -6.0000    0.0000    0.0000 C   0  0  0  0  0  0  0  0  0  0  0  0
   -7.5000    0.0000    0.0000 C   0  0  0  0  0  0  0  0  0  0  0  0
   -5.2500   -1.2990    0.0000 C   0  0  0  0  0  0  0  0  0  0  0  0
   -3.7500   -1.2990    0.0000 O   0  0  0  0  0  0  0  0  0  0  0  0
   -6.0000   -2.5981    0.0000 O   0  0  0  0  0  1  0  0  0  0  0  0
   -3.0000    0.0000    0.0000 C   0  0  0  0  0  0  0  0  0  0  0  0
   -1.5000    0.0000    0.0000 C   0  0  0  0  0  0  0  0  0  0  0  0
   -0.7500   -1.2990    0.0000 O   0  0  0  0  0  0  0  0  0  0  0  0
    0.7500   -3.8971    0.0000 N   0  0  0  0  0  0  0  0  0  0  0  0
    1.5000   -5.1962    0.0000 C   0  0  0  0  0  0  0  0  0  0  0  0
    5.2500   -6.4952    0.0000 C   0  0  0  0  0  0  0  0  0  0  0  0
    6.0000   -5.1962    0.0000 F   0  0  0  0  0  0  0  0  0  0  0  0
    6.0000   -7.7942    0.0000 C   0  0  0  0  0  0  0  0  0  0  0  0
    5.2500   -9.0933    0.0000 N   0  0  0  0  0  0  0  0  0  0  0  0
    7.0000    0.0000    0.0000 Na  0  0  0  0  0 15  0  0  0  0  0  0
  1  2  1  0
  2  3  1  0
  3  4  2  0
  4  5  1  0
  5  6  1  0
  6  7  2  0
  7  8  1  0
  8  9  2  0
  9 10  1  0
 10 11  1  0
 11 12  1  0
 12 13  1  0
 13 14  2  0
 14 15  1  0
 15 16  2  0
 17 16  1  1
 17 18  1  0
 18 19  1  0
 19 20  1  0
 17 21  1  0
 21 22  1  1
 21 23  1  0
 23 24  2  0
 23 25  1  0
 16 26  1  0
 26 27  2  0
 27 28  1  0
  9 29  1  0
 29 30  2  0
  5 31  2  0
 31 32  1  0
 31 33  1  0
 33 34  2  0
 34  3  1  0
 30  6  1  0
 28 10  1  0
 27 13  1  0
 20 18  1  0
M  CHG  2  25  -1  35   1
M  END
>  <assay_description>  (357) 
Inhibition of human BSEP expressed in baculovirus infected Sf9 insect cell membrane vesicles assessed as reduction in ATP-dependent [3H]-taurocholic acid uptake

>  <molecule_pref_name>  (357) 
None

>  <canonical_smiles>  (357) 
COc1cc(-c2ccc(C3CCc4ccc([C@H](C5CC5)[C@H](C)C(=O)[O-])cc4O3)nc2)c(F)cn1.[Na+]

>  <pchembl_value>  (357) 
5.50

>  <standard_type>  (357) 
IC50

>  <standard_relation>  (357) 
=

>  <standard_value>  (357) 
3200.0

>  <standard_units>  (357) 
nM

>  <target_pref_name>  (357) 
Bile salt export pump

>  <target_organism>  (357) 
Homo sapiens

$$$$
CHEMBL4483575
     RDKit          2D

 37 40  0  0  0  0  0  0  0  0999 V2000
    5.2500   -6.4952    0.0000 C   0  0  0  0  0  0  0  0  0  0  0  0
    6.0000   -5.1962    0.0000 C   0  0  0  0  0  0  0  0  0  0  0  0
    5.2500   -3.8971    0.0000 C   0  0  0  0  0  0  0  0  0  0  0  0
    3.7500   -3.8971    0.0000 O   0  0  0  0  0  0  0  0  0  0  0  0
    6.0000   -2.5981    0.0000 N   0  0  0  0  0  0  0  0  0  0  0  0
    7.5000   -2.5981    0.0000 C   0  0  0  0  0  0  0  0  0  0  0  0
    5.2500   -1.2990    0.0000 C   0  0  0  0  0  0  0  0  0  0  0  0
    3.7500   -1.2990    0.0000 C   0  0  0  0  0  0  0  0  0  0  0  0
    3.0000    0.0000    0.0000 O   0  0  0  0  0  0  0  0  0  0  0  0
    1.5000    0.0000    0.0000 C   0  0  0  0  0  0  0  0  0  0  0  0
    0.7500   -1.2990    0.0000 C   0  0  0  0  0  0  0  0  0  0  0  0
    1.5000   -2.5981    0.0000 N   0  0  0  0  0  0  0  0  0  0  0  0
   -0.7500   -1.2990    0.0000 N   0  0  0  0  0  0  0  0  0  0  0  0
   -1.5000    0.0000    0.0000 C   0  0  0  0  0  0  0  0  0  0  0  0
   -0.7500    1.2990    0.0000 N   0  0  0  0  0  0  0  0  0  0  0  0
    0.7500    1.2990    0.0000 C   0  0  0  0  0  0  0  0  0  0  0  0
    1.5000    2.5981    0.0000 C   0  0  0  0  0  0  0  0  0  0  0  0
    3.0000    2.5981    0.0000 C   0  0  0  0  0  0  0  0  0  0  0  0
    3.7500    3.8971    0.0000 C   0  0  0  0  0  0  0  0  0  0  0  0
    5.2500    3.8971    0.0000 F   0  0  0  0  0  0  0  0  0  0  0  0
    3.0000    5.1962    0.0000 C   0  0  0  0  0  0  0  0  0  0  0  0
    1.5000    5.1962    0.0000 C   0  0  0  0  0  0  0  0  0  0  0  0
    0.7500    6.4952    0.0000 N   0  0  0  0  0  0  0  0  0  0  0  0
    1.5000    7.7942    0.0000 C   0  0  0  0  0  0  0  0  0  0  0  0
    3.0000    7.7942    0.0000 O   0  0  0  0  0  0  0  0  0  0  0  0
    0.7500    9.0933    0.0000 C   0  0  0  0  0  0  0  0  0  0  0  0
    1.5000   10.3923    0.0000 C   0  0  0  0  0  0  0  0  0  0  0  0
    0.7500   11.6913    0.0000 C   0  0  0  0  0  0  0  0  0  0  0  0
   -0.7500   11.6913    0.0000 C   0  0  0  0  0  0  0  0  0  0  0  0
   -1.5000   12.9904    0.0000 C   0  0  0  0  0  0  0  0  0  0  0  0
   -2.7990   13.7404    0.0000 C   0  0  0  0  0  0  0  0  0  0  0  0
   -1.5000   14.4904    0.0000 C   0  0  0  0  0  0  0  0  0  0  0  0
   -1.5000   10.3923    0.0000 C   0  0  0  0  0  0  0  0  0  0  0  0
   -0.7500    9.0933    0.0000 C   0  0  0  0  0  0  0  0  0  0  0  0
   -1.5000    7.7942    0.0000 F   0  0  0  0  0  0  0  0  0  0  0  0
    0.7500    3.8971    0.0000 C   0  0  0  0  0  0  0  0  0  0  0  0
   -0.7500    3.8971    0.0000 C   0  0  0  0  0  0  0  0  0  0  0  0
  1  2  2  0
  2  3  1  0
  3  4  2  0
  3  5  1  0
  5  6  1  0
  5  7  1  0
  7  8  1  0
  8  9  1  0
  9 10  1  0
 10 11  2  0
 11 12  1  0
 11 13  1  0
 13 14  2  0
 14 15  1  0
 15 16  2  0
 16 17  1  0
 17 18  2  0
 18 19  1  0
 19 20  1  0
 19 21  2  0
 21 22  1  0
 22 23  1  0
 23 24  1  0
 24 25  2  0
 24 26  1  0
 26 27  2  0
 27 28  1  0
 28 29  2  0
 29 30  1  0
 30 31  1  0
 31 32  1  0
 29 33  1  0
 33 34  2  0
 34 35  1  0
 22 36  2  0
 36 37  1  0
 16 10  1  0
 36 17  1  0
 34 26  1  0
 32 30  1  0
M  END
>  <assay_description>  (358) 
Inhibition of BSEP (unknown origin)

>  <molecule_pref_name>  (358) 
None

>  <canonical_smiles>  (358) 
C=CC(=O)N(C)CCOc1c(N)ncnc1-c1cc(F)cc(NC(=O)c2ccc(C3CC3)cc2F)c1C

>  <pchembl_value>  (358) 
5.18

>  <standard_type>  (358) 
IC50

>  <standard_relation>  (358) 
=

>  <standard_value>  (358) 
6600.0

>  <standard_units>  (358) 
nM

>  <target_pref_name>  (358) 
Bile salt export pump

>  <target_organism>  (358) 
Homo sapiens

$$$$
CHEMBL4474619
     RDKit          2D

 33 36  0  0  0  0  0  0  0  0999 V2000
    4.6740   -4.8322    0.0000 C   0  0  0  0  0  0  0  0  0  0  0  0
    3.3037   -4.2221    0.0000 C   0  0  0  0  0  0  0  0  0  0  0  0
    2.9918   -2.7549    0.0000 C   0  0  0  0  0  0  0  0  0  0  0  0
    1.5000   -2.5981    0.0000 C   0  0  0  0  0  0  0  0  0  0  0  0
    0.7500   -1.2990    0.0000 C   0  0  0  0  0  0  0  0  0  0  0  0
    1.5000    0.0000    0.0000 C   0  0  0  0  0  0  0  0  0  0  0  0
    0.7500    1.2990    0.0000 C   0  0  0  0  0  0  0  0  0  0  0  0
   -0.7500    1.2990    0.0000 C   0  0  0  0  0  0  0  0  0  0  0  0
   -1.5000    2.5981    0.0000 C   0  0  0  0  0  0  0  0  0  0  0  0
   -3.0000    2.5981    0.0000 O   0  0  0  0  0  0  0  0  0  0  0  0
   -0.7500    3.8971    0.0000 C   0  0  0  0  0  0  0  0  0  0  0  0
    0.7500    3.8971    0.0000 C   0  0  0  0  0  0  0  0  0  0  0  0
    1.5000    5.1962    0.0000 C   0  0  0  0  0  0  0  0  0  0  0  0
    0.7500    6.4952    0.0000 C   0  0  0  0  0  0  0  0  0  0  0  0
   -0.7500    6.4952    0.0000 C   0  0  0  0  0  0  0  0  0  0  0  0
   -1.5000    5.1962    0.0000 C   0  0  0  0  0  0  0  0  0  0  0  0
   -3.0000    5.1962    0.0000 C   0  0  0  0  0  0  0  0  0  0  0  0
   -3.7500    3.8971    0.0000 O   0  0  0  0  0  0  0  0  0  0  0  0
   -3.7500    6.4952    0.0000 N   0  0  0  0  0  0  0  0  0  0  0  0
   -5.2500    6.4952    0.0000 C   0  0  0  0  0  0  0  0  0  0  0  0
   -6.1317    5.2817    0.0000 C   0  0  0  0  0  0  0  0  0  0  0  0
   -7.5583    5.7452    0.0000 N   0  0  0  0  0  0  0  0  0  0  0  0
   -7.5583    7.2452    0.0000 N   0  0  0  0  0  0  0  0  0  0  0  0
   -8.7718    8.1269    0.0000 C   0  0  0  0  0  0  0  0  0  0  0  0
   -6.1317    7.7087    0.0000 C   0  0  0  0  0  0  0  0  0  0  0  0
   -5.6682    9.1353    0.0000 S   0  0  0  0  0  0  0  0  0  0  0  0
   -5.2046   10.5619    0.0000 N   0  0  0  0  0  0  0  0  0  0  0  0
   -4.2416    8.6718    0.0000 O   0  0  0  0  0  0  0  0  0  0  0  0
   -7.0947    9.5988    0.0000 O   0  0  0  0  0  0  0  0  0  0  0  0
   -1.5000    0.0000    0.0000 C   0  0  0  0  0  0  0  0  0  0  0  0
   -0.7500   -1.2990    0.0000 C   0  0  0  0  0  0  0  0  0  0  0  0
    0.8899   -3.9684    0.0000 N   0  0  0  0  0  0  0  0  0  0  0  0
    2.0046   -4.9721    0.0000 N   0  0  0  0  0  0  0  0  0  0  0  0
  1  2  1  0
  2  3  2  0
  3  4  1  0
  4  5  1  0
  5  6  2  0
  6  7  1  0
  7  8  2  0
  8  9  1  0
  9 10  2  0
 11  9  1  1
 11 12  1  0
 12 13  1  0
 13 14  1  0
 14 15  1  0
 15 16  1  0
 16 17  1  6
 17 18  2  0
 17 19  1  0
 19 20  1  0
 20 21  1  0
 21 22  2  0
 22 23  1  0
 23 24  1  0
 23 25  1  0
 25 26  1  0
 26 27  1  0
 26 28  2  0
 26 29  2  0
  8 30  1  0
 30 31  2  0
  4 32  2  0
 32 33  1  0
 33  2  1  0
 31  5  1  0
 16 11  1  0
 25 20  2  0
M  END
>  <assay_description>  (359) 
Inhibition of recombinant human BSEP expressed in baculovirus infected Sf21 insect cell vesicles assessed as reduction in NBD-taurocholate uptake by fluorescence assay

>  <molecule_pref_name>  (359) 
None

>  <canonical_smiles>  (359) 
Cc1cc(-c2ccc(C(=O)[C@@H]3CCCC[C@H]3C(=O)Nc3cnn(C)c3S(N)(=O)=O)cc2)n[nH]1

>  <pchembl_value>  (359) 
4.13

>  <standard_type>  (359) 
IC50

>  <standard_relation>  (359) 
=

>  <standard_value>  (359) 
74000.0

>  <standard_units>  (359) 
nM

>  <target_pref_name>  (359) 
Bile salt export pump

>  <target_organism>  (359) 
Homo sapiens

$$$$
CHEMBL4542281
     RDKit          2D

 33 37  0  0  0  0  0  0  0  0999 V2000
    7.1514  -16.5653    0.0000 C   0  0  0  0  0  0  0  0  0  0  0  0
    6.0367  -15.5616    0.0000 C   0  0  0  0  0  0  0  0  0  0  0  0
    6.1935  -14.0698    0.0000 C   0  0  0  0  0  0  0  0  0  0  0  0
    4.8232  -13.4597    0.0000 C   0  0  0  0  0  0  0  0  0  0  0  0
    4.5113  -11.9925    0.0000 C   0  0  0  0  0  0  0  0  0  0  0  0
    5.6260  -10.9888    0.0000 C   0  0  0  0  0  0  0  0  0  0  0  0
    5.3142   -9.5216    0.0000 C   0  0  0  0  0  0  0  0  0  0  0  0
    3.8876   -9.0580    0.0000 C   0  0  0  0  0  0  0  0  0  0  0  0
    3.5757   -7.5908    0.0000 C   0  0  0  0  0  0  0  0  0  0  0  0
    2.1491   -7.1273    0.0000 O   0  0  0  0  0  0  0  0  0  0  0  0
    4.6904   -6.5871    0.0000 C   0  0  0  0  0  0  0  0  0  0  0  0
    6.1170   -7.0506    0.0000 C   0  0  0  0  0  0  0  0  0  0  0  0
    7.2317   -6.0469    0.0000 C   0  0  0  0  0  0  0  0  0  0  0  0
    6.9199   -4.5797    0.0000 C   0  0  0  0  0  0  0  0  0  0  0  0
    5.4933   -4.1162    0.0000 C   0  0  0  0  0  0  0  0  0  0  0  0
    4.3786   -5.1199    0.0000 C   0  0  0  0  0  0  0  0  0  0  0  0
    2.9520   -4.6564    0.0000 C   0  0  0  0  0  0  0  0  0  0  0  0
    1.8373   -5.6601    0.0000 O   0  0  0  0  0  0  0  0  0  0  0  0
    2.6401   -3.1891    0.0000 N   0  0  0  0  0  0  0  0  0  0  0  0
    1.2135   -2.7256    0.0000 C   0  0  0  0  0  0  0  0  0  0  0  0
   -0.0000   -3.6073    0.0000 C   0  0  0  0  0  0  0  0  0  0  0  0
   -1.2135   -2.7256    0.0000 N   0  0  0  0  0  0  0  0  0  0  0  0
   -0.7500   -1.2990    0.0000 N   0  0  0  0  0  0  0  0  0  0  0  0
    0.7500   -1.2990    0.0000 C   0  0  0  0  0  0  0  0  0  0  0  0
    1.5000    0.0000    0.0000 C   0  0  0  0  0  0  0  0  0  0  0  0
    3.0000    0.0000    0.0000 O   0  0  0  0  0  0  0  0  0  0  0  0
    0.7500    1.2990    0.0000 N   0  0  0  0  0  0  0  0  0  0  0  0
   -0.7500    1.2990    0.0000 C   0  0  0  0  0  0  0  0  0  0  0  0
   -1.5000    0.0000    0.0000 C   0  0  0  0  0  0  0  0  0  0  0  0
    2.7729  -10.0617    0.0000 C   0  0  0  0  0  0  0  0  0  0  0  0
    3.0847  -11.5290    0.0000 C   0  0  0  0  0  0  0  0  0  0  0  0
    3.8195  -14.5744    0.0000 N   0  0  0  0  0  0  0  0  0  0  0  0
    4.5695  -15.8735    0.0000 N   0  0  0  0  0  0  0  0  0  0  0  0
  1  2  1  0
  2  3  2  0
  3  4  1  0
  4  5  1  0
  5  6  2  0
  6  7  1  0
  7  8  2  0
  8  9  1  0
  9 10  2  0
 11  9  1  1
 11 12  1  0
 12 13  1  0
 13 14  1  0
 14 15  1  0
 15 16  1  0
 16 17  1  6
 17 18  2  0
 17 19  1  0
 19 20  1  0
 20 21  1  0
 21 22  2  0
 22 23  1  0
 23 24  1  0
 24 25  1  0
 25 26  2  0
 25 27  1  0
 27 28  1  0
 28 29  1  0
  8 30  1  0
 30 31  2  0
  4 32  2  0
 32 33  1  0
 33  2  1  0
 31  5  1  0
 16 11  1  0
 24 20  2  0
 29 23  1  0
M  END
>  <assay_description>  (360) 
Inhibition of recombinant human BSEP expressed in baculovirus infected Sf21 insect cell vesicles assessed as reduction in NBD-taurocholate uptake by fluorescence assay

>  <molecule_pref_name>  (360) 
None

>  <canonical_smiles>  (360) 
Cc1cc(-c2ccc(C(=O)[C@@H]3CCCC[C@H]3C(=O)Nc3cnn4c3C(=O)NCC4)cc2)n[nH]1

>  <pchembl_value>  (360) 
4.13

>  <standard_type>  (360) 
IC50

>  <standard_relation>  (360) 
=

>  <standard_value>  (360) 
74000.0

>  <standard_units>  (360) 
nM

>  <target_pref_name>  (360) 
Bile salt export pump

>  <target_organism>  (360) 
Homo sapiens

$$$$
CHEMBL4469805
     RDKit          2D

 32 34  0  0  0  0  0  0  0  0999 V2000
    3.7500   -1.2990    0.0000 C   0  0  0  0  0  0  0  0  0  0  0  0
    3.0000    0.0000    0.0000 O   0  0  0  0  0  0  0  0  0  0  0  0
    1.5000    0.0000    0.0000 C   0  0  0  0  0  0  0  0  0  0  0  0
    0.7500   -1.2990    0.0000 C   0  0  0  0  0  0  0  0  0  0  0  0
   -0.7500   -1.2990    0.0000 C   0  0  0  0  0  0  0  0  0  0  0  0
   -1.5000   -2.5981    0.0000 C   0  0  0  0  0  0  0  0  0  0  0  0
   -0.7500   -3.8971    0.0000 O   0  0  0  0  0  0  0  0  0  0  0  0
   -3.0000   -2.5981    0.0000 N   0  0  0  0  0  0  0  0  0  0  0  0
   -3.7500   -3.8971    0.0000 S   0  0  0  0  0  0  0  0  0  0  0  0
   -4.5000   -5.1962    0.0000 C   0  0  0  0  0  0  0  0  0  0  0  0
   -2.4510   -4.6471    0.0000 O   0  0  0  0  0  0  0  0  0  0  0  0
   -5.0490   -3.1471    0.0000 O   0  0  0  0  0  0  0  0  0  0  0  0
   -1.5000    0.0000    0.0000 C   0  0  0  0  0  0  0  0  0  0  0  0
   -3.0000    0.0000    0.0000 F   0  0  0  0  0  0  0  0  0  0  0  0
   -0.7500    1.2990    0.0000 C   0  0  0  0  0  0  0  0  0  0  0  0
    0.7500    1.2990    0.0000 C   0  0  0  0  0  0  0  0  0  0  0  0
    1.5000    2.5981    0.0000 C   0  0  0  0  0  0  0  0  0  0  0  0
    3.0000    2.5981    0.0000 C   0  0  0  0  0  0  0  0  0  0  0  0
    3.7500    3.8971    0.0000 N   0  0  0  0  0  0  0  0  0  0  0  0
    3.0000    5.1962    0.0000 C   0  0  0  0  0  0  0  0  0  0  0  0
    3.7500    6.4952    0.0000 O   0  0  0  0  0  0  0  0  0  0  0  0
    5.2500    6.4952    0.0000 C   0  0  0  0  0  0  0  0  0  0  0  0
    6.0000    5.1962    0.0000 C   0  0  0  0  0  0  0  0  0  0  0  0
    7.5000    5.1962    0.0000 C   0  0  0  0  0  0  0  0  0  0  0  0
    8.2500    3.8971    0.0000 F   0  0  0  0  0  0  0  0  0  0  0  0
    8.2500    6.4952    0.0000 C   0  0  0  0  0  0  0  0  0  0  0  0
    7.5000    7.7942    0.0000 C   0  0  0  0  0  0  0  0  0  0  0  0
    6.0000    7.7942    0.0000 C   0  0  0  0  0  0  0  0  0  0  0  0
    5.2500    9.0933    0.0000 F   0  0  0  0  0  0  0  0  0  0  0  0
    1.5000    5.1962    0.0000 C   0  0  0  0  0  0  0  0  0  0  0  0
    0.7500    6.4952    0.0000 Cl  0  0  0  0  0  0  0  0  0  0  0  0
    0.7500    3.8971    0.0000 C   0  0  0  0  0  0  0  0  0  0  0  0
  1  2  1  0
  2  3  1  0
  3  4  2  0
  4  5  1  0
  5  6  1  0
  6  7  2  0
  6  8  1  0
  8  9  1  0
  9 10  1  0
  9 11  2  0
  9 12  2  0
  5 13  2  0
 13 14  1  0
 13 15  1  0
 15 16  2  0
 16 17  1  0
 17 18  2  0
 18 19  1  0
 19 20  2  0
 20 21  1  0
 21 22  1  0
 22 23  2  0
 23 24  1  0
 24 25  1  0
 24 26  2  0
 26 27  1  0
 27 28  2  0
 28 29  1  0
 20 30  1  0
 30 31  1  0
 30 32  2  0
 16  3  1  0
 32 17  1  0
 28 22  1  0
M  END
>  <assay_description>  (361) 
Inhibition of human BSEP in plasma membrane vesicles after 10 mins in presence of [3H]-taurocholate by topcount based transport assay

>  <molecule_pref_name>  (361) 
None

>  <canonical_smiles>  (361) 
COc1cc(C(=O)NS(C)(=O)=O)c(F)cc1-c1cnc(Oc2cc(F)ccc2F)c(Cl)c1

>  <pchembl_value>  (361) 
4.88

>  <standard_type>  (361) 
IC50

>  <standard_relation>  (361) 
=

>  <standard_value>  (361) 
13300.0

>  <standard_units>  (361) 
nM

>  <target_pref_name>  (361) 
Bile salt export pump

>  <target_organism>  (361) 
Homo sapiens

$$$$
